version 2
run N_classes-0-20191214-15:40:26-2968
attr configname N_classes
attr datetime 20191214-15:40:26
attr experiment N_classes
attr inifile omnetpp.ini
attr iterationvars ""
attr iterationvarsf ""
attr measurement ""
attr network Net
attr processid 2968
attr repetition 0
attr replication #0
attr resultdir results
attr runnumber 0
attr seedset 0
param **.n ask
param **.policy ask
param **.gen[*].interArrivalTime exponential(0.5s)
param **.gen[*].serviceTime exponential(0.4s)

vector 0 Net.sys qlen:vector ETV
attr interpolationmode sample-hold
attr title "queue length, vector"
vector 1 Net.sys queueingTime:vector ETV
attr interpolationmode none
attr title "queueing time at dequeue, vector"
attr unit s
vector 2 Net.sys "Class 1 QueueingTime:vector" ETV
attr interpolationmode none
attr title "queueing time per class, vector"
attr unit s
vector 3 Net.sys responseTime:vector ETV
attr interpolationmode none
attr title "response time at end of service, vector"
attr unit s
vector 4 Net.sys "Class 1 ResponseTime:vector" ETV
attr interpolationmode none
attr title "response time per class, vector"
attr unit s
vector 5 Net.sys "Class 1 ExtServiceTime:vector" ETV
attr interpolationmode none
attr title "extended service time per class, vector"
attr unit s
vector 6 Net.sys "Class 2 QueueingTime:vector" ETV
attr interpolationmode none
attr title "queueing time per class, vector"
attr unit s
vector 7 Net.sink lifetime:vector ETV
attr interpolationmode none
attr title "lifetime of arrived msg, vector"
attr unit s
vector 8 Net.sink arrivedMsg:vector ETV
attr interpolationmode none
attr title "number of arrived msg, vector"
vector 9 Net.sys "Class 2 ResponseTime:vector" ETV
attr interpolationmode none
attr title "response time per class, vector"
attr unit s
vector 10 Net.sys "Class 2 ExtServiceTime:vector" ETV
attr interpolationmode none
attr title "extended service time per class, vector"
attr unit s
vector 11 Net.sys "Class 3 QueueingTime:vector" ETV
attr interpolationmode none
attr title "queueing time per class, vector"
attr unit s
0	0	0	0
0	4	0	0
0	5	0	1
0	6	0	2
0	7	0.318349801826	1
0	10	0.449280194242	2
0	11	0.764160650235	1
0	14	0.929802106037	2
0	16	0.975772667942	3
0	17	1.135602561038	2
0	20	1.218336749803	3
0	21	1.356021955706	2
0	24	1.388762221343	3
0	26	1.394916319372	4
0	28	1.41795455589	5
0	30	1.418305319234	6
0	32	1.554094389793	7
0	34	1.742677730015	8
0	36	1.881035673404	9
0	38	1.992113734523	10
0	40	2.197902732644	11
0	42	2.254410919396	12
0	43	2.278171990158	11
0	45	2.471612832137	10
0	48	2.484034988024	11
0	50	2.720208986798	12
0	52	2.785220305541	13
0	54	2.79582441363	14
0	55	2.807385973297	13
0	57	2.836860115483	12
0	59	2.873324525933	11
0	62	3.116678999969	12
0	63	3.475638229388	11
0	66	3.805666413497	12
0	68	3.923680037415	13
0	70	4.059119952362	14
0	72	4.173148624092	15
0	74	4.49164950827	16
0	76	4.609309221613	17
0	78	4.696733803474	18
0	80	4.75270688379	19
0	82	4.877066837504	20
0	84	4.980168478519	21
0	85	5.013726977045	20
0	88	5.073554234806	21
0	90	5.195578480174	22
0	92	5.26821749382	23
0	94	5.31999156166	24
0	96	5.401059806383	25
0	98	5.464102899158	26
0	100	5.52678077242	27
0	102	5.647813570831	28
0	103	5.65582279987	27
0	106	5.708381423812	28
0	108	5.94668660924	29
0	110	6.18312871556	30
0	112	6.235409328448	31
0	113	6.262437189466	30
0	115	6.324329061666	29
0	117	6.447241202527	28
0	120	6.691237459527	29
0	121	7.042543132828	28
0	124	7.109862140087	29
0	126	7.203575173096	30
0	128	7.220654525271	31
0	130	7.425277187406	32
0	131	7.500598714708	31
0	133	7.730411677404	30
0	136	7.893307967292	31
0	138	7.915175870167	32
0	140	7.934767448374	33
0	142	7.985516170675	34
0	144	8.089864245944	35
0	145	8.174650655679	34
0	147	8.269133338112	33
0	149	8.420718123825	32
0	152	8.437702950957	33
0	153	8.601558947915	32
0	156	8.61877745262	33
0	157	8.644612991177	32
0	159	8.714978409347	31
0	162	8.941712573667	32
0	163	9.342536856396	31
0	165	9.350707091756	30
0	168	9.37767050048	31
0	170	9.581989491702	32
0	172	9.645202839022	33
0	174	9.903879992503	34
0	175	10.065702157131	33
0	178	10.110130607464	34
0	179	10.116051920906	33
0	182	10.133634876057	34
0	184	10.324412797744	35
0	185	10.411182837608	34
0	187	10.625409125699	33
0	190	10.671714758231	34
0	191	10.869042094972	33
0	194	11.07773046438	34
0	195	11.205175977217	33
0	197	11.212763404897	32
0	200	11.298827627742	33
0	202	11.305659916957	34
0	204	11.620865154819	35
0	206	11.793210884035	36
0	207	11.986960290829	35
0	209	12.027818243439	34
0	211	12.068232153563	33
0	214	12.165309704157	34
0	216	12.180772337696	35
0	217	12.246439551583	34
0	220	12.537064134363	35
0	222	12.565727597575	36
0	223	12.724882671366	35
0	225	12.749728787553	34
0	228	12.865701040896	35
0	230	12.875796104969	36
0	232	13.167235299402	37
0	234	13.217970354553	38
0	236	13.440680085513	39
0	238	13.580005070207	40
0	239	13.630560524777	39
0	242	13.768503227695	40
0	243	13.881737157173	39
0	245	13.950988139631	38
0	247	13.997770303548	37
0	249	14.085322542151	36
0	252	14.163441833481	37
0	253	14.377395583784	36
0	256	14.830621826196	37
0	258	14.952819550237	38
0	260	15.113020360825	39
0	262	15.36924130827	40
0	264	15.415397725024	41
0	265	15.711701305203	40
0	268	15.724865276879	41
0	269	15.762924011327	40
0	271	15.90339444708	39
0	274	16.114640622079	40
0	276	16.158025863249	41
0	278	16.320696071014	42
0	280	16.325396446346	43
0	282	16.658188903512	44
0	283	16.714721188936	43
0	285	16.867801568481	42
0	288	16.995017530858	43
0	289	17.087437245253	42
0	291	17.113956205846	41
0	294	17.179079230602	42
0	296	17.249060271847	43
0	297	17.315740897412	42
0	300	17.332838092483	43
0	302	17.502660333475	44
0	304	17.592786459467	45
0	305	17.686089709267	44
0	308	17.735236792384	45
0	309	17.737119408581	44
0	311	17.776579531948	43
0	314	17.814407545499	44
0	316	17.823651907489	45
0	318	17.915658766602	46
0	320	18.08583213572	47
0	322	18.235949061573	48
0	323	18.267461202288	47
0	326	18.36978421246	48
0	327	18.381869591291	47
0	330	18.431906234207	48
0	332	18.621956115754	49
0	333	18.885843115335	48
0	336	18.94146126622	49
0	337	19.042429263376	48
0	340	19.131285480763	49
0	341	19.148698004344	48
0	343	19.561161363821	47
0	346	19.563773022137	48
0	348	19.701089462529	49
0	349	19.720061349654	48
0	352	19.861962719302	49
0	354	19.923726042983	50
0	356	20.052214715457	51
0	358	20.317575963765	52
0	360	20.652135322265	53
0	361	20.724583597275	52
0	364	20.7958405603	53
0	366	20.880216972187	54
0	367	20.926591096377	53
0	370	20.983709981503	54
0	372	21.427640686721	55
0	374	21.622592754151	56
0	375	21.78052327637	55
0	378	21.966558128789	56
0	380	22.003526639799	57
0	382	22.097586749627	58
0	384	22.254682038929	59
0	386	22.562402198713	60
0	387	22.570154111252	59
0	390	22.57673439309	60
0	392	22.579813532374	61
0	394	22.749645898665	62
0	396	22.879966056528	63
0	398	22.99146374196	64
0	400	23.206256151722	65
0	402	23.260529700969	66
0	403	23.264916078836	65
0	406	23.308991078257	66
0	408	23.527505085144	67
0	410	23.571455659796	68
0	412	23.588557368975	69
0	413	23.913087554053	68
0	416	23.928781078023	69
0	418	24.045187544435	70
0	420	24.122346124098	71
0	422	24.170228291924	72
0	424	24.198492936725	73
0	426	24.22138859935	74
0	427	24.336691308205	73
0	430	24.372171555962	74
0	431	24.68762594339	73
0	434	24.757209985735	74
0	436	25.054246734897	75
0	438	25.106687652697	76
0	440	25.323860480669	77
0	442	25.324825108616	78
0	444	25.64059178953	79
0	446	26.244691501155	80
0	448	26.263832957597	81
0	450	26.26739781698	82
0	452	26.358667117921	83
0	454	26.618791921209	84
0	456	26.815680434405	85
0	458	27.080681873473	86
0	460	27.113578845726	87
0	462	27.130472238502	88
0	464	27.15607737857	89
0	466	27.389713661775	90
0	468	27.619785168972	91
0	470	27.645741445063	92
0	472	27.662142225847	93
0	474	27.670526108843	94
0	476	27.801690763426	95
0	478	27.873197367459	96
0	479	28.030981316591	95
0	482	28.52558780442	96
0	483	28.841344843432	95
0	485	28.91227507349	94
0	488	29.155395657904	95
0	490	29.218733480431	96
0	492	29.31550324351	97
0	494	29.362701929234	98
0	496	29.461616682964	99
0	498	29.522492704846	100
0	500	29.554963738848	101
0	502	29.555376158565	102
0	503	29.665846628124	101
0	506	29.833791376835	102
0	507	30.177980309649	101
0	510	30.302360735697	102
0	512	30.592979269069	103
0	514	30.756342749359	104
0	515	30.983089404131	103
0	518	30.997648302768	104
0	520	31.023489755666	105
0	522	31.102942634128	106
0	523	31.161590532339	105
0	525	31.183938553494	104
0	528	31.358394882203	105
0	530	31.513878784688	106
0	532	31.623975208937	107
0	533	31.815303642336	106
0	536	32.082177032317	107
0	538	32.622561192682	108
0	540	32.777015564205	109
0	541	32.868191187356	108
0	544	33.181005590905	109
0	546	33.300382027329	110
0	547	33.355709908693	109
0	550	33.426181333885	110
0	551	33.427692845314	109
0	553	33.536360073451	108
0	556	33.542509078125	109
0	558	33.549610968284	110
0	560	33.850450461546	111
0	562	33.963998465832	112
0	564	34.291528359609	113
0	566	34.336105504607	114
0	568	34.365141685665	115
0	570	34.534567417262	116
0	571	34.698139314885	115
0	574	34.69969854751	116
0	575	34.801344420461	115
0	577	34.950812338219	114
0	579	35.150162121916	113
0	581	35.428481906276	112
0	584	35.598902464528	113
0	586	35.607689801814	114
0	587	35.788668980661	113
0	590	35.998677662252	114
0	592	36.079622250314	115
0	593	36.107469318743	114
0	596	36.573045854423	115
0	597	36.635647667486	114
0	600	36.760588112467	115
0	602	36.898661220382	116
0	604	36.962857730692	117
0	605	37.002420599801	116
0	607	37.035965841657	115
0	609	37.094195433036	114
0	611	37.235885085934	113
0	614	37.325765885422	114
0	616	37.365691386685	115
0	618	37.589959365737	116
0	620	37.642730895119	117
0	622	37.670107843554	118
0	624	37.716528911565	119
0	626	37.800283549328	120
0	628	38.774418451155	121
0	630	38.783310555302	122
0	632	38.974205430043	123
0	634	38.979597069396	124
0	636	38.979624745344	125
0	638	39.166506392252	126
0	639	39.181626895971	125
0	642	39.2933434889	126
0	643	39.303868856697	125
0	646	39.340889266627	126
0	648	39.443591806776	127
0	650	39.74811411313	128
0	651	39.872022238931	127
0	654	39.910418091963	128
0	656	40.078365653005	129
0	658	40.208685717693	130
0	659	40.227023010324	129
0	662	40.376225329337	130
0	664	40.564440005098	131
0	665	40.623624727483	130
0	668	40.687749560867	131
0	670	41.006843863663	132
0	672	41.270059044664	133
0	674	41.35349636528	134
0	675	41.447953223835	133
0	677	41.575783085784	132
0	680	41.628519252637	133
0	682	42.00898254936	134
0	684	42.129942371746	135
0	686	42.142987775806	136
0	688	42.148122070928	137
0	690	42.233121368548	138
0	692	42.794851618322	139
0	693	42.797056953621	138
0	696	42.835462047829	139
0	698	42.93159276825	140
0	700	42.956951175065	141
0	702	42.967025862386	142
0	703	43.262302266991	141
0	706	43.267969634606	142
0	708	43.382591797209	143
0	710	43.472728946998	144
0	712	43.539399258634	145
0	714	43.541092440841	146
0	716	43.556555586621	147
0	718	43.884657563856	148
0	720	43.93324140304	149
0	722	44.055840449361	150
0	724	44.179611435623	151
0	726	44.243727093831	152
0	728	44.267070965653	153
0	730	44.384398890281	154
0	731	44.44009437796	153
0	734	44.553476247703	154
0	736	44.747498682437	155
0	738	44.78005511483	156
0	740	44.837424564771	157
0	742	44.84206607696	158
0	743	44.965097575146	157
0	745	45.0581075825	156
0	748	45.118935487297	157
0	750	45.185625625944	158
0	751	45.279242930761	157
0	753	45.528374654667	156
0	755	45.658461061858	155
0	757	45.708474097827	154
0	760	45.737060879201	155
0	762	45.793470862623	156
0	764	45.837281976744	157
0	765	45.999883634921	156
0	768	46.152594102677	157
0	769	46.201595608222	156
0	772	46.271564842477	157
0	773	46.282579113701	156
0	775	46.345169421855	155
0	777	46.612985658199	154
0	780	46.737870770111	155
0	781	46.788767814396	154
0	784	46.861078681217	155
0	786	46.927099942255	156
0	787	47.110124519463	155
0	790	47.164718325527	156
0	792	47.196921035079	157
0	794	47.503619326555	158
0	796	47.825539532864	159
0	798	47.836540569873	160
0	800	47.982544329446	161
0	801	48.171147925671	160
0	804	48.181257838797	161
0	806	48.289305947094	162
0	808	48.441979764379	163
0	809	48.614511827357	162
0	812	48.913260150937	163
0	813	48.96766404534	162
0	816	49.031427188419	163
0	817	49.233587145161	162
0	820	49.789461653332	163
0	822	49.904634603239	164
0	823	50.07020977421	163
0	825	50.235301720901	162
0	828	50.271808429761	163
0	830	50.273836590422	164
0	832	50.430835539454	165
0	834	50.604972451719	166
0	836	50.695069153605	167
0	838	50.871867441236	168
0	840	50.884476286714	169
0	842	50.948766405352	170
0	844	51.128224762551	171
0	846	51.388764173093	172
0	847	51.538870111775	171
0	850	51.809832324512	172
0	852	51.890391366456	173
0	854	52.020328973536	174
0	856	52.285309763172	175
0	858	52.507884432875	176
0	860	52.668038546633	177
0	861	52.731750381964	176
0	864	52.7628798498	177
0	866	52.847685499196	178
0	868	52.922583039132	179
0	870	53.119334244693	180
0	871	53.373933887191	179
0	874	53.509195931896	180
0	876	53.516219227517	181
0	878	53.897431069624	182
0	880	54.079052179075	183
0	882	54.150971400356	184
0	883	54.203438472431	183
0	886	54.29522775553	184
0	888	54.646764134197	185
0	890	54.860917139332	186
0	891	54.95947915167	185
0	894	55.143864410149	186
0	896	55.151244911332	187
0	897	55.344283922306	186
0	899	55.408417560101	185
0	902	55.478247024534	186
0	904	55.716486315833	187
0	906	55.767253357804	188
0	908	55.841298955781	189
0	910	55.915204294428	190
0	912	56.036054822937	191
0	914	56.23879164645	192
0	916	56.289463558291	193
0	918	56.37070625893	194
0	920	56.545511191246	195
0	922	56.661255154179	196
0	924	56.662418144448	197
0	926	56.94534039605	198
0	927	57.011597422051	197
0	930	57.301344428862	198
0	932	57.346513050903	199
0	934	57.502932320067	200
0	936	57.53927546696	201
0	938	57.618642806045	202
0	940	57.885976505153	203
0	942	57.984207448101	204
0	944	58.020417003158	205
0	946	58.025284707828	206
0	948	58.190488116338	207
0	950	58.262114627029	208
0	951	58.307582608811	207
0	953	58.341414405516	206
0	955	58.44712259117	205
0	958	58.478834684065	206
0	959	58.480267500337	205
0	961	58.51781731925	204
0	963	58.630426928238	203
0	965	58.848690014145	202
0	967	58.905077167911	201
0	970	59.017345427641	202
0	972	59.138326702549	203
0	973	59.14870295004	202
0	975	59.28206428539	201
0	977	59.362006500558	200
0	980	59.475802189376	201
0	982	59.645292169811	202
0	984	59.775058988457	203
0	986	59.792768252622	204
0	987	59.983504701371	203
0	989	60.00691586095	202
0	992	60.060470428169	203
0	994	60.110174926745	204
0	995	60.127045893064	203
0	998	60.156118451118	204
0	999	60.314288474358	203
0	1002	60.432629172328	204
0	1003	60.66859273277	203
0	1006	60.716842020026	204
0	1007	60.796026271922	203
0	1010	60.803939600213	204
0	1012	60.839078352921	205
0	1014	60.881582392965	206
0	1016	60.92154266059	207
0	1018	61.118571446563	208
0	1020	61.198077454963	209
0	1022	61.269003582717	210
0	1024	61.285176813255	211
0	1026	61.338296993429	212
0	1028	61.363222905399	213
0	1030	61.386695729583	214
0	1032	61.430004226806	215
0	1033	61.439393411556	214
0	1035	61.471424953934	213
0	1038	61.71764586797	214
0	1039	61.816091950652	213
0	1042	62.235670226366	214
0	1044	62.28472998768	215
0	1046	62.562559444259	216
0	1048	62.570231120653	217
0	1050	62.765964004731	218
0	1052	62.883046216891	219
0	1054	62.896767267106	220
0	1056	63.004216111662	221
0	1057	63.098015482497	220
0	1059	63.112416614397	219
0	1061	63.167597907169	218
0	1063	63.367074840317	217
0	1066	63.395784590043	218
0	1068	63.400691808242	219
0	1070	63.554028316148	220
0	1072	63.584983278047	221
0	1074	63.686574866851	222
0	1076	63.73249621745	223
0	1078	63.934996096105	224
0	1080	63.986272042607	225
0	1082	64.140505499432	226
0	1084	64.472277488138	227
0	1086	64.558046801824	228
0	1087	64.620206636136	227
0	1090	65.134475226854	228
0	1092	65.178891418181	229
0	1094	65.223112478244	230
0	1096	65.228502181423	231
0	1097	65.557502608173	230
0	1100	65.725138065183	231
0	1101	66.072687398203	230
0	1103	66.231519778211	229
0	1105	66.301517797498	228
0	1108	66.719392010086	229
0	1109	66.938140246615	228
0	1112	66.999796296997	229
0	1114	67.015932808749	230
0	1116	67.105440293025	231
0	1117	67.183238424561	230
0	1120	67.288792869922	231
0	1122	67.352579656821	232
0	1123	67.427661449075	231
0	1126	67.645964060161	232
0	1128	67.650215010727	233
0	1130	67.693792065674	234
0	1132	67.894568703332	235
0	1134	68.029697397851	236
0	1136	68.278799992028	237
0	1138	68.599836836311	238
0	1140	68.627112300764	239
0	1141	68.641238478034	238
0	1144	68.651672254632	239
0	1146	68.675382940278	240
0	1148	68.680468713041	241
0	1150	68.720636675352	242
0	1152	68.74855098496	243
0	1154	68.81583090841	244
0	1156	69.11801099493	245
0	1158	69.175653357254	246
0	1159	69.328866202749	245
0	1162	69.5689329032	246
0	1164	69.585434895728	247
0	1166	69.635407753281	248
0	1168	69.642682077893	249
0	1170	69.878666121779	250
0	1172	70.019365830672	251
0	1174	70.216344056865	252
0	1175	70.286938118505	251
0	1178	70.356632019954	252
0	1180	70.372618865673	253
0	1182	70.395986316541	254
0	1183	70.406669471472	253
0	1185	70.413254785066	252
0	1188	70.581567176942	253
0	1190	70.59109268359	254
0	1192	71.413684397127	255
0	1194	71.472034514388	256
0	1195	71.472930089958	255
0	1198	71.701548478132	256
0	1200	71.889079449691	257
0	1202	71.924543570832	258
0	1204	71.961069399409	259
0	1206	72.018147569032	260
0	1208	72.257753916274	261
0	1210	72.536400695874	262
0	1211	72.63529793142	261
0	1214	72.698409982901	262
0	1216	72.760220570804	263
0	1217	72.877471444076	262
0	1219	72.983445419131	261
0	1221	72.989737068641	260
0	1223	73.017937847985	259
0	1226	73.104477514826	260
0	1227	73.134047214034	259
0	1229	73.234027540694	258
0	1231	73.283113543621	257
0	1234	73.383640909458	258
0	1236	73.660279268235	259
0	1237	73.717594868084	258
0	1239	73.830573552867	257
0	1242	73.844221162085	258
0	1243	74.051294401522	257
0	1246	74.140549871053	258
0	1248	74.248200728299	259
0	1250	74.330417249225	260
0	1251	74.374886279575	259
0	1254	74.473820127544	260
0	1255	74.510224727054	259
0	1258	74.583778856175	260
0	1260	74.881864801873	261
0	1262	75.144829998135	262
0	1263	75.215859683929	261
0	1265	75.234699392351	260
0	1268	75.293516762089	261
0	1270	75.533955874241	262
0	1272	75.875872411321	263
0	1273	75.909586707854	262
0	1276	76.131200845995	263
0	1278	76.195720097587	264
0	1280	76.266437043292	265
0	1282	76.333956455859	266
0	1284	76.395993171233	267
0	1286	76.670147906878	268
0	1288	76.891815104879	269
0	1290	77.012725994665	270
0	1292	77.135074674758	271
0	1294	77.195490372889	272
0	1296	77.506600262833	273
0	1298	77.577851735658	274
0	1299	77.602793026387	273
0	1302	77.694139834972	274
0	1304	77.812249581478	275
0	1306	77.890220479783	276
0	1308	78.255541536838	277
0	1310	78.38214728481	278
0	1312	78.557807925581	279
0	1314	78.606064291501	280
0	1316	78.683899094629	281
0	1318	78.822896719188	282
0	1319	78.991935308748	281
0	1321	79.13264226292	280
0	1324	79.228143292779	281
0	1326	79.34066453971	282
0	1328	79.354349956925	283
0	1330	79.643420866258	284
0	1332	79.720962626264	285
0	1334	79.733426674128	286
0	1336	79.738275640364	287
0	1338	79.80897219673	288
0	1340	79.813997963541	289
0	1342	79.857876784144	290
0	1344	80.330927654771	291
0	1346	80.424331622245	292
0	1348	80.431337901568	293
0	1350	80.720996906375	294
0	1352	80.888156770629	295
0	1354	80.940854835585	296
0	1356	80.958666741196	297
0	1358	80.996262645778	298
0	1360	81.006007292254	299
0	1362	81.026828628266	300
0	1363	81.064530362108	299
0	1366	81.10719364855	300
0	1367	81.109308178566	299
0	1369	81.215634798175	298
0	1372	81.256870150021	299
0	1374	81.378242868701	300
0	1375	81.68380909018	299
0	1378	81.811888878116	300
0	1379	82.208594322614	299
0	1382	82.553512877443	300
0	1384	82.712933401649	301
0	1386	82.951462337458	302
0	1388	82.964376359671	303
0	1389	83.06247528043	302
0	1391	83.250026542681	301
0	1393	83.358648859354	300
0	1395	83.467236845926	299
0	1398	83.671593033566	300
0	1400	84.05919971695	301
0	1402	84.221908075531	302
0	1403	84.275070647214	301
0	1406	84.288137397175	302
0	1408	84.30157770693	303
0	1410	84.467465177151	304
0	1412	84.66736281339	305
0	1414	84.792841878291	306
0	1415	84.830814049993	305
0	1418	84.885149814744	306
0	1419	85.311836987877	305
0	1422	85.348154510567	306
0	1424	85.548345276297	307
0	1425	85.552298846431	306
0	1427	85.768459925472	305
0	1429	85.89699604662	304
0	1432	86.043912846027	305
0	1433	86.255817252262	304
0	1436	86.374825264606	305
0	1438	86.403095763633	306
0	1440	86.647649968943	307
0	1442	86.648509936519	308
0	1444	86.732142358295	309
0	1446	87.025255877823	310
0	1447	87.164101295221	309
0	1449	87.372945816985	308
0	1452	87.59048447698	309
0	1453	87.694200525753	308
0	1456	87.848962283844	309
0	1457	87.976180254303	308
0	1460	88.09606874503	309
0	1462	88.099961067518	310
0	1464	88.180203121197	311
0	1466	88.246398701877	312
0	1468	88.255265253058	313
0	1469	88.273931558862	312
0	1472	88.43334814384	313
0	1474	88.741644688102	314
0	1476	88.750405472119	315
0	1478	88.754061291975	316
0	1479	88.829402468409	315
0	1482	88.978105276163	316
0	1484	89.150227226136	317
0	1486	89.158701816543	318
0	1488	89.233625105197	319
0	1490	89.327395779203	320
0	1492	89.331669788526	321
0	1494	89.43583605325	322
0	1495	89.622527500519	321
0	1497	89.64249374149	320
0	1499	89.686700092131	319
0	1502	90.022871121647	320
0	1504	90.075227258362	321
0	1505	90.225679621607	320
0	1508	90.24631460417	321
0	1510	90.416770237121	322
0	1512	90.633572998137	323
0	1513	90.682096955308	322
0	1515	90.773823823963	321
0	1518	90.879793686326	322
0	1519	90.94106048754	321
0	1522	91.008586119497	322
0	1524	91.060715356676	323
0	1526	91.066366707914	324
0	1527	91.254883166307	323
0	1530	91.311942324119	324
0	1531	91.387787415738	323
0	1533	91.596098961686	322
0	1535	91.763890691074	321
0	1538	91.963703264913	322
0	1539	92.209735092274	321
0	1542	92.513937530152	322
0	1544	92.543264458822	323
0	1545	92.576643811039	322
0	1548	92.804441857882	323
0	1550	92.849966219595	324
0	1552	92.864732125177	325
0	1553	93.012531366294	324
0	1556	93.121001823195	325
0	1558	93.327354504275	326
0	1560	93.511944034747	327
0	1561	93.638393986573	326
0	1563	93.671542730239	325
0	1566	93.753470546879	326
0	1567	94.093882573703	325
0	1570	94.1246764721	326
0	1571	94.162790265249	325
0	1573	94.39177488582	324
0	1576	94.43370266067	325
0	1577	94.537086360157	324
0	1580	94.575147164482	325
0	1581	94.919472929726	324
0	1584	94.96245403266	325
0	1585	94.972346413572	324
0	1587	95.181494425607	323
0	1589	95.210164579332	322
0	1591	95.28548256942	321
0	1594	95.310426719808	322
0	1596	95.690552102706	323
0	1598	95.88952630003	324
0	1600	96.053810977303	325
0	1602	96.148640224082	326
0	1603	96.18243489867	325
0	1605	96.189913086838	324
0	1607	96.359375927381	323
0	1610	96.371003948231	324
0	1612	96.447152535033	325
0	1614	96.609502823703	326
0	1616	96.634664708322	327
0	1617	96.65044537501	326
0	1620	96.673942146724	327
0	1622	96.837736930027	328
0	1624	96.843162713133	329
0	1626	96.85970054709	330
0	1628	96.904867448887	331
0	1630	96.915965520279	332
0	1631	96.962259386542	331
0	1634	97.057501738203	332
0	1636	97.095122923168	333
0	1638	97.205472470082	334
0	1640	97.471164700005	335
0	1642	97.639350041552	336
0	1643	97.67080071427	335
0	1646	97.775282960839	336
0	1648	97.92673760404	337
0	1650	98.005573630455	338
0	1652	98.210032395078	339
0	1654	98.210090641258	340
0	1656	98.279240949669	341
0	1658	98.434255294564	342
0	1659	98.680007698812	341
0	1662	98.701151487283	342
0	1663	98.756845929271	341
0	1665	98.89953243034	340
0	1668	98.985869544218	341
0	1670	99.350372904909	342
0	1671	99.376433327173	341
0	1674	99.488145473766	342
0	1676	99.488766646748	343
0	1678	99.59003816487	344
0	1680	99.672235307835	345
0	1682	99.693889807976	346
0	1684	99.774019640786	347
0	1686	99.967266731808	348
0	1688	99.968818910212	349
0	1689	100.027417562163	348
0	1692	100.064015903683	349
0	1693	100.172636423921	348
0	1696	100.300233107222	349
0	1698	100.302834673626	350
0	1700	100.423604262648	351
0	1702	100.587612031429	352
0	1704	100.761076473006	353
0	1706	100.872876002173	354
0	1708	100.968727055879	355
0	1710	101.153716645754	356
0	1712	101.411818373222	357
0	1714	101.913099577386	358
0	1716	102.059824085101	359
0	1718	102.172712624846	360
0	1720	102.343175065026	361
0	1721	102.65100047141	360
0	1724	102.791517983319	361
0	1725	102.830885818588	360
0	1727	102.907668979368	359
0	1730	103.019713193153	360
0	1732	103.074145623975	361
0	1733	103.281501145908	360
0	1736	103.293015352032	361
0	1738	103.468914376371	362
0	1740	103.489778322818	363
0	1741	103.541265436626	362
0	1743	103.67489546985	361
0	1745	103.783835960392	360
0	1748	103.828056596846	361
0	1750	103.997134873462	362
0	1752	104.016279272348	363
0	1754	104.08578037185	364
0	1756	104.351974265552	365
0	1758	104.383013380199	366
0	1760	104.940446807234	367
0	1762	105.095544868866	368
0	1763	105.193096496884	367
0	1765	105.361363565844	366
0	1768	105.510675192249	367
0	1769	105.563869152677	366
0	1772	105.739351576342	367
0	1774	105.799580710227	368
0	1776	105.958465380918	369
0	1778	106.001275777973	370
0	1780	106.104001074462	371
0	1782	106.114964764807	372
0	1784	106.188780706423	373
0	1786	106.339758208168	374
0	1788	106.725936712711	375
0	1790	106.824802596682	376
0	1792	107.083173968601	377
0	1794	107.108746443242	378
0	1796	107.279782612096	379
0	1798	107.364049786467	380
0	1800	107.546565842287	381
0	1802	107.573534320496	382
0	1804	108.026965874149	383
0	1805	108.457256533796	382
0	1807	108.483129975854	381
0	1809	108.593906865985	380
0	1812	108.657889150835	381
0	1814	108.777311771749	382
0	1815	108.820358686663	381
0	1818	108.896144707302	382
0	1819	109.115613383682	381
0	1822	109.138857282024	382
0	1824	109.243639524887	383
0	1826	109.417073725034	384
0	1828	109.421559418701	385
0	1830	109.468842786951	386
0	1832	109.620217769277	387
0	1833	109.662834992232	386
0	1835	109.85426562066	385
0	1838	109.861207374057	386
0	1840	109.911981759347	387
0	1841	109.918243306001	386
0	1844	109.951560686799	387
0	1845	110.266275270148	386
0	1847	110.376870343788	385
0	1850	110.388768134837	386
0	1851	110.450932765182	385
0	1854	110.546886687758	386
0	1855	110.757764627011	385
0	1858	110.867344399356	386
0	1860	111.086045230111	387
0	1862	111.194071029219	388
0	1863	111.281678775556	387
0	1866	111.441080402939	388
0	1868	111.49373761254	389
0	1870	111.51396659037	390
0	1872	111.844506490785	391
0	1874	112.009616069408	392
0	1876	112.143727616044	393
0	1878	112.150990125126	394
0	1880	112.174064766131	395
0	1881	112.216482840236	394
0	1884	112.21709592504	395
0	1885	112.42068787061	394
0	1888	112.472231623919	395
0	1889	112.589763785837	394
0	1891	112.707166846606	393
0	1894	112.712377530823	394
0	1896	112.723486856832	395
0	1897	112.731079231772	394
0	1900	112.903639280562	395
0	1902	112.958290872896	396
0	1903	112.959038257895	395
0	1906	113.145665044294	396
0	1908	113.445413374709	397
0	1910	113.449183325696	398
0	1912	113.645025595637	399
0	1914	113.835085111306	400
0	1915	113.836968793481	399
0	1918	114.002470742942	400
0	1919	114.079667039487	399
0	1921	114.161674921997	398
0	1924	114.372317965046	399
0	1926	114.537371312073	400
0	1927	114.580246742998	399
0	1930	114.730912279249	400
0	1931	114.735125729894	399
0	1934	114.750086302007	400
0	1935	114.753756171261	399
0	1938	115.005215877186	400
0	1939	115.0614040917	399
0	1942	115.143198140838	400
0	1944	115.163125790548	401
0	1946	115.187741119583	402
0	1948	115.202782517351	403
0	1950	115.383643035799	404
0	1951	115.649028073975	403
0	1954	115.710950725673	404
0	1956	115.956682053331	405
0	1958	115.95728620427	406
0	1960	116.303190954534	407
0	1961	116.518416229644	406
0	1963	116.526763117088	405
0	1965	116.681038194706	404
0	1968	116.82059848656	405
0	1969	117.11768798644	404
0	1971	117.199827093934	403
0	1973	117.296914491403	402
0	1976	117.341336233114	403
0	1977	117.589005557499	402
0	1979	117.599404655576	401
0	1982	117.616199618231	402
0	1983	117.700768088222	401
0	1986	117.835626706752	402
0	1987	117.843349948829	401
0	1990	117.891906265267	402
0	1991	117.900006762747	401
0	1993	118.404731832142	400
0	1996	118.628212696539	401
0	1998	118.778684260172	402
0	1999	118.965545550756	401
0	2002	119.265638422814	402
0	2004	119.280446454121	403
0	2005	119.314030470134	402
0	2008	119.449272506563	403
0	2010	119.609771335509	404
0	2012	119.614135283662	405
0	2014	119.626765844562	406
0	2015	119.665316501621	405
0	2018	119.665761984521	406
0	2019	119.693137534674	405
0	2022	119.704675437617	406
0	2024	119.760129957645	407
0	2026	119.830612829964	408
0	2027	119.831345368157	407
0	2030	119.858954770543	408
0	2031	119.941556542972	407
0	2034	119.990742846448	408
0	2036	120.026288186731	409
0	2037	120.270111859069	408
0	2040	121.069623093765	409
0	2042	121.071945317811	410
0	2044	121.164148178268	411
0	2046	121.271499547322	412
0	2047	121.391095426134	411
0	2050	121.442533583988	412
0	2052	121.451047388734	413
0	2054	121.479039855909	414
0	2055	121.614502465083	413
0	2058	121.695954433453	414
0	2060	121.724812535286	415
0	2062	121.725003607585	416
0	2064	121.775256369452	417
0	2066	121.78336543347	418
0	2068	121.940363448894	419
0	2070	122.047404546226	420
0	2071	122.170658195974	419
0	2073	122.182410174887	418
0	2076	122.334063472624	419
0	2077	122.651897266037	418
0	2080	122.767434007957	419
0	2082	122.799625366239	420
0	2084	123.071743684984	421
0	2086	123.218275433878	422
0	2088	123.298483537496	423
0	2090	123.313728025382	424
0	2092	123.369209589991	425
0	2094	123.42562241145	426
0	2096	123.476912041398	427
0	2098	123.618729775308	428
0	2100	123.730038963837	429
0	2102	123.862723942724	430
0	2104	123.870442833035	431
0	2106	124.302983161879	432
0	2107	124.399897166608	431
0	2110	124.43168955065	432
0	2111	124.520828421828	431
0	2114	124.557302465379	432
0	2116	124.650527282474	433
0	2118	124.772492463641	434
0	2120	124.864264080112	435
0	2121	124.978783001616	434
0	2123	125.048450690059	433
0	2125	125.067625569892	432
0	2127	125.069172699167	431
0	2130	125.230285265477	432
0	2132	125.333268137916	433
0	2134	125.429315767971	434
0	2135	125.923650269693	433
0	2137	125.928980367624	432
0	2140	126.144763146451	433
0	2141	126.204157759008	432
0	2144	126.334371273702	433
0	2146	126.413074187937	434
0	2148	126.602963142245	435
0	2149	126.61223259419	434
0	2152	126.654332860407	435
0	2154	126.67106023997	436
0	2156	126.948576102627	437
0	2158	126.997875852726	438
0	2160	127.243361303779	439
0	2161	127.493860231837	438
0	2164	127.671444382481	439
0	2165	127.679894529336	438
0	2167	127.680448254378	437
0	2170	127.792354849394	438
0	2171	127.794288327974	437
0	2174	128.018997084801	438
0	2176	128.187404733939	439
0	2177	128.484941679871	438
0	2179	128.569154995153	437
0	2182	128.569878043459	438
0	2183	128.610342340641	437
0	2186	128.611538138859	438
0	2188	128.918834004458	439
0	2190	129.177848533017	440
0	2192	129.315002586798	441
0	2194	129.3486510704	442
0	2196	129.763341577174	443
0	2198	129.894719282144	444
0	2200	129.92700071525	445
0	2202	130.281755303485	446
0	2204	130.306392103832	447
0	2206	130.668480397439	448
0	2207	130.844713204351	447
0	2210	130.945435250776	448
0	2212	130.9681173064	449
0	2214	130.998231797472	450
0	2215	131.033830622235	449
0	2218	131.053285171414	450
0	2220	131.083180190479	451
0	2222	131.341246657849	452
0	2224	131.381594488536	453
0	2226	131.422725771272	454
0	2228	131.520172994013	455
0	2229	132.058148188142	454
0	2232	132.071644055846	455
0	2233	132.299539705114	454
0	2236	132.833479196016	455
0	2238	132.927416178221	456
0	2240	132.946039224373	457
0	2242	132.975354247286	458
0	2243	133.043302334081	457
0	2246	133.207253846047	458
0	2247	133.265983399719	457
0	2249	133.309201826468	456
0	2252	133.373168312674	457
0	2253	133.48640904427	456
0	2256	133.490065306558	457
0	2258	133.540266020154	458
0	2259	133.590276239691	457
0	2262	134.026201039326	458
0	2263	134.185248141427	457
0	2266	134.28005359082	458
0	2268	134.281393919988	459
0	2270	134.498271665359	460
0	2272	134.859076954195	461
0	2274	134.98617928555	462
0	2276	134.998711579327	463
0	2278	135.002459751551	464
0	2280	135.058451206737	465
0	2281	135.358667532388	464
0	2283	135.557566120325	463
0	2286	135.621891464862	464
0	2288	135.649153906033	465
0	2289	135.81143609646	464
0	2292	136.102404544643	465
0	2294	136.232531553315	466
0	2296	136.3138725125	467
0	2298	136.487673205026	468
0	2300	136.536547366197	469
0	2302	136.769983454928	470
0	2304	136.772259448343	471
0	2306	137.018449863174	472
0	2308	137.062901975622	473
0	2310	137.077476219863	474
0	2312	137.119913081769	475
0	2314	137.195649496946	476
0	2316	137.314229864885	477
0	2318	137.321646106278	478
0	2319	137.46709040887	477
0	2322	137.543367146413	478
0	2324	137.668158492252	479
0	2326	137.746304813502	480
0	2328	137.838291785317	481
0	2330	137.871594353937	482
0	2332	137.969374438241	483
0	2334	138.025083045208	484
0	2335	138.054903735218	483
0	2338	138.071276804586	484
0	2340	138.110061276561	485
0	2342	138.183503452647	486
0	2343	138.231812210821	485
0	2346	138.269029362167	486
0	2348	138.478409038295	487
0	2350	138.532216433726	488
0	2352	138.73660032356	489
0	2353	138.778774498422	488
0	2355	138.872179980837	487
0	2358	139.076524520253	488
0	2360	139.128008704511	489
0	2362	139.141055686992	490
0	2364	139.17057021342	491
0	2366	139.212294222201	492
0	2368	139.480919583393	493
0	2369	139.521784158355	492
0	2372	139.576305663698	493
0	2373	139.591119166846	492
0	2376	139.59270844106	493
0	2378	139.700252572186	494
0	2380	139.897743836698	495
0	2381	139.963388589495	494
0	2384	140.184384856031	495
0	2386	140.449967239191	496
0	2388	140.571159582917	497
0	2390	140.57912315345	498
0	2391	140.631783219572	497
0	2393	140.892880667789	496
0	2396	140.894319252997	497
0	2398	141.007047764172	498
0	2400	141.168253599985	499
0	2402	141.389220194421	500
0	2404	141.613978045704	501
0	2406	141.705154778335	502
0	2408	141.790343457678	503
0	2409	141.878278519459	502
0	2411	141.898521803186	501
0	2414	142.366548967367	502
0	2416	142.383881318648	503
0	2417	142.400702071785	502
0	2419	142.61729106925	501
0	2422	142.643023634531	502
0	2423	142.662652958127	501
0	2425	142.918983386726	500
0	2427	143.129850902605	499
0	2430	143.193547702886	500
0	2431	143.419820277128	499
0	2434	143.466194906486	500
0	2436	143.534499336332	501
0	2438	143.550353279513	502
0	2440	143.574716626429	503
0	2442	143.687135710638	504
0	2444	144.020233313116	505
0	2446	144.073021266006	506
0	2448	144.076400653442	507
0	2450	144.278805472317	508
0	2451	144.299326392994	507
0	2454	144.397056445848	508
0	2456	144.425069508779	509
0	2458	144.509260047613	510
0	2460	144.51685446208	511
0	2461	144.563612430361	510
0	2464	144.739303696573	511
0	2466	144.932925845307	512
0	2468	145.224369721742	513
0	2470	145.356343709943	514
0	2472	145.375534267633	515
0	2474	145.470467021542	516
0	2476	145.625368088822	517
0	2477	145.670204497583	516
0	2480	145.802467395865	517
0	2481	145.803185266217	516
0	2483	145.867159507765	515
0	2486	146.053666415195	516
0	2488	146.077219333939	517
0	2490	146.171325324172	518
0	2492	146.182427785556	519
0	2494	146.418225645781	520
0	2496	146.539221987678	521
0	2498	146.55682736504	522
0	2499	146.694344433828	521
0	2501	146.998631074562	520
0	2504	147.11000389752	521
0	2506	147.116103869361	522
0	2507	147.235500996153	521
0	2509	147.372448361298	520
0	2512	147.714752224084	521
0	2513	148.007500076327	520
0	2516	148.170437610304	521
0	2518	148.395842515618	522
0	2520	148.418987268577	523
0	2521	148.540061816505	522
0	2524	148.615728467061	523
0	2526	148.768537586375	524
0	2528	148.863026844734	525
0	2530	148.907484025907	526
0	2532	148.959226285014	527
0	2534	149.208889479909	528
0	2535	149.343865263185	527
0	2537	149.57673768444	526
0	2539	149.84327003485	525
0	2542	149.929085282413	526
0	2543	150.081220537207	525
0	2546	150.115695146591	526
0	2548	150.308267806489	527
0	2550	150.697870073961	528
0	2551	150.887547522942	527
0	2554	150.905731873175	528
0	2556	151.009069086134	529
0	2558	151.059415509551	530
0	2560	151.167810522424	531
0	2562	151.213078670984	532
0	2564	151.437530636877	533
0	2565	151.553609413893	532
0	2567	151.648635631065	531
0	2570	151.843721565457	532
0	2572	151.975859961303	533
0	2574	152.065715490925	534
0	2575	152.483711736318	533
0	2578	152.48920291825	534
0	2580	152.594816891278	535
0	2582	152.640536215299	536
0	2584	152.755323166294	537
0	2586	152.833140303991	538
0	2588	152.884780858494	539
0	2590	153.067698278063	540
0	2592	153.264764576123	541
0	2594	153.408968858794	542
0	2595	153.486800670422	541
0	2597	153.563929865942	540
0	2599	153.587353405271	539
0	2602	153.691459919233	540
0	2603	153.921704432287	539
0	2606	154.101693703193	540
0	2607	154.488181824485	539
0	2610	154.517515179546	540
0	2612	154.543778224725	541
0	2614	154.598729612319	542
0	2616	154.858718185632	543
0	2617	154.916563843035	542
0	2620	155.075256325408	543
0	2621	155.207929433199	542
0	2624	155.215134726604	543
0	2626	155.311347483679	544
0	2627	155.473338107173	543
0	2630	155.516419431911	544
0	2632	155.652331191418	545
0	2634	155.987270912128	546
0	2636	156.169334102789	547
0	2638	156.194844109372	548
0	2639	156.399048066618	547
0	2642	156.634091854621	548
0	2643	156.722601542065	547
0	2646	156.819357107378	548
0	2648	156.876915789805	549
0	2650	156.964174956342	550
0	2651	157.239830317215	549
0	2653	157.255558417187	548
0	2656	157.340726762264	549
0	2657	157.397193937226	548
0	2659	157.401791237309	547
0	2662	157.43060880635	548
0	2664	157.790257192487	549
0	2665	157.990672900506	548
0	2667	158.054246172368	547
0	2670	158.223215723638	548
0	2671	158.326393815353	547
0	2674	158.436839531791	548
0	2675	158.465374334357	547
0	2678	158.575796055192	548
0	2680	158.785885438156	549
0	2681	159.065071951412	548
0	2684	159.232439232865	549
0	2685	159.38135194612	548
0	2688	159.44519132879	549
0	2690	159.582774753944	550
0	2692	159.694335737396	551
0	2693	159.746550479012	550
0	2696	159.831509742656	551
0	2698	160.443701260647	552
0	2700	160.485506062541	553
0	2701	160.506900873866	552
0	2703	160.605088666722	551
0	2706	160.635737046496	552
0	2708	160.683401605017	553
0	2709	160.706602810863	552
0	2711	161.121500848504	551
0	2714	161.286937185468	552
0	2715	161.346630929231	551
0	2718	161.577540837024	552
0	2720	161.693693519098	553
0	2722	161.746610647745	554
0	2723	162.042015662551	553
0	2726	162.240453207671	554
0	2727	162.28620880055	553
0	2730	162.321785855161	554
0	2732	162.447599121244	555
0	2734	162.510404295916	556
0	2735	162.547036930953	555
0	2738	162.663995325942	556
0	2740	162.703721662939	557
0	2741	162.937128547927	556
0	2744	163.002230265877	557
0	2745	163.046913956728	556
0	2748	163.074638333119	557
0	2750	163.278336728806	558
0	2751	163.541900147541	557
0	2754	163.616187886686	558
0	2756	163.653738472118	559
0	2758	163.666189581769	560
0	2760	163.818069500953	561
0	2762	164.021315784735	562
0	2763	164.13966595058	561
0	2765	164.168342837801	560
0	2767	164.699272026796	559
0	2770	164.7521205228	560
0	2771	164.776948418308	559
0	2774	164.830552525359	560
0	2776	165.045723208449	561
0	2778	165.059231481085	562
0	2780	165.373960431751	563
0	2782	165.413247545229	564
0	2783	165.453042400211	563
0	2785	165.522505025494	562
0	2787	165.725792807115	561
0	2790	165.775898089307	562
0	2792	165.825498849311	563
0	2793	165.920960094524	562
0	2796	166.187294733359	563
0	2798	166.192159986325	564
0	2800	166.2654578826	565
0	2802	166.295828435016	566
0	2804	166.55732386651	567
0	2806	166.742674380888	568
0	2808	166.887838921996	569
0	2810	166.966548518267	570
0	2812	167.159384446568	571
0	2814	167.251859897268	572
0	2816	167.384123480919	573
0	2818	167.400413807711	574
0	2820	167.426432440551	575
0	2822	167.431881048642	576
0	2824	167.519959492337	577
0	2825	167.579276182406	576
0	2828	167.650909287628	577
0	2829	167.675511793508	576
0	2832	167.713762732011	577
0	2834	167.73454379141	578
0	2835	167.779833055999	577
0	2837	167.861773962858	576
0	2840	168.026465085895	577
0	2842	168.061225525017	578
0	2844	168.372728105086	579
0	2846	168.469791153199	580
0	2848	168.697837036062	581
0	2849	168.732187286965	580
0	2851	168.890413527123	579
0	2854	169.20240080751	580
0	2855	169.271662542429	579
0	2857	169.388440971121	578
0	2860	169.596986890389	579
0	2862	169.63729382507	580
0	2864	169.73568805813	581
0	2866	169.797258811585	582
0	2868	169.937364550638	583
0	2870	170.003724065561	584
0	2872	170.023752725562	585
0	2874	170.03349937127	586
0	2876	170.13006925402	587
0	2878	170.41181431437	588
0	2880	170.428259949272	589
0	2881	170.483807364286	588
0	2883	170.777462890819	587
0	2885	170.789919264199	586
0	2887	170.891573629343	585
0	2890	170.922412107437	586
0	2892	170.946373065984	587
0	2894	171.027847797301	588
0	2896	171.046942849808	589
0	2898	171.178523298111	590
0	2900	171.515303693343	591
0	2902	171.794351000187	592
0	2903	172.120409085433	591
0	2906	172.196790359188	592
0	2907	172.256024216497	591
0	2910	172.326731335228	592
0	2912	172.398637012624	593
0	2913	172.468174082446	592
0	2916	172.710037490239	593
0	2917	172.737087527112	592
0	2919	172.947499845416	591
0	2921	173.018650548559	590
0	2924	173.26552416342	591
0	2926	173.736016709554	592
0	2928	173.868248990512	593
0	2930	173.937131512283	594
0	2932	174.060089149973	595
0	2934	174.152773178358	596
0	2936	174.190541408813	597
0	2938	174.20573339167	598
0	2940	174.310411107259	599
0	2941	174.315141837675	598
0	2944	174.350383055755	599
0	2946	174.520432847327	600
0	2948	174.609533714936	601
0	2950	174.707627028197	602
0	2952	174.90864240232	603
0	2954	174.931149642734	604
0	2956	175.314871604253	605
0	2958	175.616278556442	606
0	2959	175.655247879957	605
0	2962	175.767162004591	606
0	2964	175.790804565913	607
0	2966	175.813628456052	608
0	2967	175.827556645188	607
0	2970	175.924906274542	608
0	2971	175.944973606526	607
0	2974	175.945634822733	608
0	2976	175.945964873266	609
0	2977	175.954802464836	608
0	2980	176.146652010873	609
0	2982	176.15730002576	610
0	2984	176.164281059887	611
0	2986	176.180902351764	612
0	2987	176.212792799911	611
0	2990	176.264166048783	612
0	2992	176.447914022126	613
0	2994	176.749018169151	614
0	2996	176.829286468247	615
0	2998	176.860988649374	616
0	3000	176.926420117263	617
0	3002	177.254707438505	618
0	3004	177.30281318559	619
0	3006	177.377543839446	620
0	3008	177.433025720334	621
0	3009	177.604965368057	620
0	3012	177.806735058095	621
0	3013	177.869433241707	620
0	3016	177.955794222524	621
0	3018	178.155181780953	622
0	3020	178.186533567079	623
0	3022	178.206049473313	624
0	3023	178.563700621509	623
0	3025	178.669689475796	622
0	3028	178.732717280084	623
0	3030	178.848401281317	624
0	3032	178.863738219159	625
0	3034	179.244804669585	626
0	3036	179.258995143974	627
0	3037	179.29629339787	626
0	3040	179.36155363173	627
0	3042	179.362561509615	628
0	3044	179.430315423435	629
0	3046	179.684054505438	630
0	3047	179.79860094259	629
0	3050	180.068114589508	630
0	3051	180.125225475019	629
0	3054	180.397715187774	630
0	3056	180.481965500387	631
0	3058	180.492809033625	632
0	3060	180.58908596129	633
0	3061	180.613467023763	632
0	3063	180.615596703124	631
0	3065	180.620164737741	630
0	3068	180.758367793183	631
0	3070	180.897975812325	632
0	3072	180.934050247188	633
0	3074	181.053267919605	634
0	3076	181.490074690366	635
0	3078	181.739660567056	636
0	3079	181.967076062619	635
0	3082	182.129400685893	636
0	3084	182.274327403688	637
0	3086	182.360246081082	638
0	3087	182.75068171081	637
0	3090	183.033727400241	638
0	3092	183.133149185539	639
0	3094	183.165170944574	640
0	3096	183.217852690762	641
0	3098	183.409140627796	642
0	3100	183.782362864055	643
0	3101	183.887322093148	642
0	3104	183.985074348803	643
0	3105	184.017794412157	642
0	3107	184.100062060142	641
0	3109	184.303007122572	640
0	3111	184.363781866015	639
0	3114	184.391519252137	640
0	3116	184.454198683465	641
0	3118	184.674471573545	642
0	3120	184.82928818643	643
0	3122	184.839994671846	644
0	3124	184.929294193378	645
0	3126	185.541775689038	646
0	3128	185.652906187947	647
0	3129	185.732396564481	646
0	3132	185.976427917151	647
0	3134	186.284745530789	648
0	3136	186.710751269496	649
0	3138	186.729207597767	650
0	3140	187.017376530257	651
0	3142	187.061031435383	652
0	3143	187.097561869554	651
0	3146	187.178059958529	652
0	3148	187.413342196633	653
0	3150	187.716025016113	654
0	3152	187.925743819094	655
0	3154	187.954755534675	656
0	3156	188.146722542346	657
0	3158	188.345473018689	658
0	3160	188.348046024693	659
0	3162	188.460848937177	660
0	3164	188.531533463634	661
0	3165	188.78035251767	660
0	3167	188.807695859649	659
0	3169	189.063473057008	658
0	3172	189.0837135835	659
0	3173	189.154130944382	658
0	3175	189.168448167749	657
0	3178	189.224416450682	658
0	3180	189.336673706724	659
0	3182	189.375597809541	660
0	3184	189.60125860233	661
0	3185	189.846368737568	660
0	3188	189.86661832151	661
0	3190	190.027703504921	662
0	3192	190.257525018943	663
0	3194	190.469193492743	664
0	3196	190.553174092412	665
0	3197	190.610068933546	664
0	3200	190.819057058301	665
0	3202	190.908811406295	666
0	3204	190.9740853099	667
0	3206	191.064469891125	668
0	3208	191.212843284021	669
0	3210	191.347954333782	670
0	3212	191.401990970027	671
0	3214	191.645407417614	672
0	3216	191.660033332873	673
0	3218	191.681091222923	674
0	3219	191.922317005183	673
0	3221	191.969165340806	672
0	3224	192.029898734849	673
0	3225	192.367766516985	672
0	3228	192.373032313609	673
0	3230	192.454215144711	674
0	3232	192.55434162217	675
0	3234	192.570965024876	676
0	3236	192.645276193211	677
0	3238	192.708506181755	678
0	3240	192.769845640796	679
0	3242	193.093636369227	680
0	3244	193.319507472318	681
0	3246	193.326927313296	682
0	3248	193.406323409212	683
0	3250	193.503888097212	684
0	3252	193.608679341857	685
0	3254	193.844372028343	686
0	3256	194.385825151568	687
0	3258	194.849847584375	688
0	3259	194.85241226754	687
0	3262	194.852512191915	688
0	3264	194.883628300529	689
0	3266	195.477617959784	690
0	3268	195.540928348631	691
0	3270	195.993583519524	692
0	3272	196.025962870007	693
0	3274	196.043140373586	694
0	3276	196.045829223804	695
0	3278	196.086396761818	696
0	3280	196.212697364664	697
0	3282	196.438365997988	698
0	3284	196.580059923075	699
0	3285	196.617874309215	698
0	3287	196.618701015552	697
0	3289	196.750580423526	696
0	3292	196.771688485554	697
0	3294	196.854292760315	698
0	3296	196.920264849344	699
0	3298	197.010250071975	700
0	3300	197.334075249572	701
0	3302	197.59285597196	702
0	3304	197.618889826677	703
0	3305	197.931817281495	702
0	3308	198.053147883509	703
0	3310	198.071067723434	704
0	3311	198.453421078697	703
0	3314	198.67878494378	704
0	3316	198.717986776744	705
0	3318	198.720920450653	706
0	3320	198.842462126762	707
0	3321	199.081049417612	706
0	3323	199.28029145829	705
0	3325	199.323524381203	704
0	3328	199.515887255278	705
0	3329	199.525876753509	704
0	3332	199.598184005686	705
0	3333	199.808242423047	704
0	3336	199.894919651961	705
0	3338	200.037175067839	706
0	3339	200.298471623822	705
0	3342	200.462394672008	706
0	3344	200.542500483903	707
0	3346	200.737812484549	708
0	3348	200.914554412693	709
0	3349	200.942758311329	708
0	3351	200.986680170142	707
0	3354	201.097061338566	708
0	3356	201.299289787979	709
0	3358	201.299320073877	710
0	3359	201.388708904661	709
0	3362	201.473743386075	710
0	3364	201.820261023325	711
0	3366	201.90770463991	712
0	3367	201.944881740452	711
0	3369	201.988619545867	710
0	3371	201.995924385664	709
0	3374	202.032471486921	710
0	3376	202.109938644765	711
0	3377	202.224672691665	710
0	3380	202.250941231579	711
0	3382	202.289211937068	712
0	3384	202.499187292704	713
0	3386	202.658844343848	714
0	3388	202.955963376948	715
0	3390	202.961915370834	716
0	3392	203.133311589691	717
0	3394	203.144472075833	718
0	3396	203.27085118019	719
0	3398	203.710584212339	720
0	3400	203.791803627094	721
0	3402	203.807845537359	722
0	3403	203.875101575178	721
0	3406	203.887328459658	722
0	3408	203.892038162938	723
0	3410	203.946047935947	724
0	3412	203.95425194777	725
0	3414	203.985664463768	726
0	3415	203.997585402085	725
0	3417	204.055849401352	724
0	3420	204.710609053079	725
0	3422	204.964203210062	726
0	3424	204.993007935454	727
0	3426	205.070550434243	728
0	3427	205.094068643766	727
0	3429	205.182821850992	726
0	3432	205.431799768578	727
0	3434	205.432145663353	728
0	3436	205.802647472763	729
0	3438	205.852544524838	730
0	3440	206.0421457438	731
0	3442	206.193095917703	732
0	3443	206.235125117454	731
0	3445	206.364496987621	730
0	3448	206.488884899564	731
0	3449	206.499647618386	730
0	3452	206.500525188096	731
0	3454	206.538627820625	732
0	3456	206.557756273236	733
0	3457	207.286981394456	732
0	3460	207.295299796872	733
0	3462	207.458392624364	734
0	3464	207.533300421363	735
0	3466	207.546883448759	736
0	3467	207.962428043821	735
0	3470	207.964538084038	736
0	3472	207.982653215471	737
0	3474	208.036628489372	738
0	3476	208.137693865724	739
0	3478	208.228302873106	740
0	3480	208.358063789168	741
0	3482	208.442232536554	742
0	3483	208.621624298247	741
0	3485	208.642565973086	740
0	3488	208.66855401986	741
0	3490	208.727756758061	742
0	3492	208.839922984285	743
0	3494	208.961926881081	744
0	3495	209.037209096927	743
0	3498	209.04604767127	744
0	3499	209.101454540107	743
0	3502	209.138764688764	744
0	3504	209.142593209018	745
0	3506	209.273474063853	746
0	3508	209.278558016276	747
0	3510	209.303068162736	748
0	3512	209.626202972678	749
0	3513	210.215358787624	748
0	3515	210.436611276072	747
0	3518	210.761092698304	748
0	3519	210.873103642708	747
0	3521	210.898999640588	746
0	3523	210.964586562629	745
0	3526	211.012410538595	746
0	3528	211.029833561905	747
0	3530	211.453643126498	748
0	3531	211.619438573218	747
0	3534	211.823538192845	748
0	3536	211.882595630632	749
0	3537	211.956363820409	748
0	3540	212.037171406247	749
0	3542	212.115753117428	750
0	3544	212.223624921634	751
0	3545	212.321199621705	750
0	3547	212.371840973936	749
0	3550	212.488949261682	750
0	3552	212.650628527318	751
0	3554	212.835544257473	752
0	3555	212.980378319953	751
0	3557	213.226760344676	750
0	3560	213.372900452343	751
0	3561	214.467612574346	750
0	3564	214.696518768729	751
0	3566	214.705599753532	752
0	3568	214.847164015956	753
0	3570	215.03634836949	754
0	3572	215.21211585909	755
0	3574	215.483996305594	756
0	3576	215.991831301733	757
0	3577	216.018396815735	756
0	3580	216.043344035828	757
0	3582	216.194512534068	758
0	3583	216.196347735058	757
0	3586	216.202761528117	758
0	3588	216.292477206037	759
0	3590	216.376325480344	760
0	3592	216.488241294196	761
0	3594	216.666991995064	762
0	3596	216.686624047178	763
0	3598	216.796293629934	764
0	3600	216.815463459358	765
0	3602	216.890214024025	766
0	3604	216.95156145377	767
0	3606	217.018790882713	768
0	3607	217.070983279494	767
0	3610	217.133504643481	768
0	3612	217.305990337921	769
0	3613	217.478101394248	768
0	3616	217.539479156107	769
0	3618	217.755168410539	770
0	3620	217.952255721662	771
0	3621	218.029468059009	770
0	3624	218.072601603874	771
0	3626	218.202826115799	772
0	3628	218.279059041688	773
0	3629	218.285937617385	772
0	3631	218.294573649683	771
0	3634	218.431057922812	772
0	3635	218.449030619858	771
0	3638	218.514583801031	772
0	3640	218.523548018219	773
0	3642	219.024334143587	774
0	3643	219.195160521677	773
0	3645	219.205192909502	772
0	3647	219.271314727861	771
0	3650	219.285731169605	772
0	3651	219.298328390612	771
0	3654	219.891755184315	772
0	3655	219.934003153515	771
0	3658	220.02943169801	772
0	3660	220.110328584566	773
0	3662	220.555262224685	774
0	3664	220.612550172189	775
0	3666	220.623221974565	776
0	3668	220.762108471622	777
0	3669	220.836738778695	776
0	3672	221.118804030773	777
0	3674	221.264296591202	778
0	3676	221.299117076971	779
0	3677	221.471528669605	778
0	3680	221.787826121277	779
0	3682	221.80960144193	780
0	3684	221.880835373133	781
0	3686	221.991310847477	782
0	3688	222.208008524919	783
0	3689	222.334439257105	782
0	3691	222.356531690933	781
0	3694	222.367889130107	782
0	3696	222.396123596457	783
0	3698	222.413788468941	784
0	3700	222.479494873689	785
0	3702	222.492648473944	786
0	3703	222.878418178436	785
0	3706	222.892277712514	786
0	3708	223.127082634643	787
0	3710	223.266333299099	788
0	3712	223.272269210557	789
0	3714	223.305773790611	790
0	3716	223.351091373217	791
0	3718	223.466111968879	792
0	3720	223.742676463554	793
0	3721	224.237799924957	792
0	3723	224.252934509675	791
0	3726	224.27119241563	792
0	3728	224.325300206947	793
0	3729	224.420417799059	792
0	3731	224.438655776087	791
0	3734	224.469941959452	792
0	3736	224.665761760025	793
0	3738	224.67339480286	794
0	3740	224.762032396641	795
0	3742	224.804583236677	796
0	3744	225.164518499565	797
0	3746	225.289602314235	798
0	3748	225.340800416373	799
0	3750	225.421791182821	800
0	3752	225.441734642567	801
0	3753	225.44798683788	800
0	3755	225.593551089546	799
0	3757	225.702024333363	798
0	3760	225.713986472414	799
0	3762	225.766900467708	800
0	3763	225.807937242698	799
0	3766	225.876211205517	800
0	3768	225.889937004353	801
0	3770	225.933903677006	802
0	3771	225.97934028437	801
0	3774	226.064021295277	802
0	3775	226.094103922523	801
0	3778	226.206144563318	802
0	3780	226.428016273698	803
0	3782	226.726067154108	804
0	3784	226.74659516941	805
0	3786	226.746953778358	806
0	3788	226.754399406114	807
0	3790	226.756990160072	808
0	3791	226.901545673129	807
0	3793	227.028767491205	806
0	3795	227.219373819594	805
0	3798	227.232563416887	806
0	3800	227.262830803292	807
0	3801	227.408517192417	806
0	3804	227.500562754414	807
0	3806	227.56599964434	808
0	3807	227.647137159168	807
0	3809	227.792368695242	806
0	3812	227.882656232438	807
0	3814	227.937320296318	808
0	3816	227.959876593154	809
0	3818	227.988702048072	810
0	3820	228.022370075686	811
0	3822	228.078044004679	812
0	3823	228.122952426153	811
0	3826	228.528723621338	812
0	3827	228.589730406058	811
0	3829	228.619132957026	810
0	3831	228.757706288024	809
0	3834	228.827623442414	810
0	3835	229.145479547096	809
0	3838	229.15223243819	810
0	3840	229.198786354575	811
0	3841	229.737050829576	810
0	3844	229.747307678956	811
0	3845	229.86384178153	810
0	3847	230.106955687177	809
0	3850	230.193879794881	810
0	3852	230.238528715064	811
0	3853	230.324166277817	810
0	3856	230.494084584067	811
0	3858	230.915727924443	812
0	3860	230.991876306036	813
0	3862	230.998991648249	814
0	3864	231.297337075909	815
0	3866	231.564596895998	816
0	3867	231.588324592511	815
0	3869	231.60327718421	814
0	3871	231.774653595726	813
0	3874	231.809280973555	814
0	3876	231.977711251555	815
0	3878	231.984577049046	816
0	3879	232.012715718189	815
0	3881	232.303086114032	814
0	3884	232.311945663906	815
0	3885	232.411258817241	814
0	3887	232.423539526445	813
0	3890	232.570643809589	814
0	3892	232.663769435535	815
0	3894	232.683775546657	816
0	3895	232.726006025561	815
0	3897	232.735851483189	814
0	3899	232.830013829791	813
0	3901	232.879198856546	812
0	3904	232.964962755133	813
0	3906	233.121294957921	814
0	3907	233.223484739552	813
0	3910	233.247122829677	814
0	3912	233.500079272736	815
0	3914	233.557319298621	816
0	3916	233.565173051724	817
0	3918	233.947568493302	818
0	3920	233.955987915544	819
0	3921	233.972188051748	818
0	3923	234.014824779825	817
0	3926	234.098733172739	818
0	3928	234.130805568994	819
0	3930	234.325468435313	820
0	3932	234.494222300388	821
0	3934	234.497695188293	822
0	3936	234.964495089847	823
0	3938	235.011632838174	824
0	3940	235.198987553368	825
0	3942	235.283847168312	826
0	3944	235.653835880437	827
0	3946	235.686178777517	828
0	3948	235.810858436881	829
0	3949	235.847139110677	828
0	3952	235.859387159654	829
0	3954	235.870679503991	830
0	3956	235.967444837167	831
0	3957	236.231546902658	830
0	3960	236.661361527166	831
0	3962	236.7572110913	832
0	3964	236.835058139006	833
0	3966	237.014224726503	834
0	3968	237.087342824691	835
0	3970	237.094881535086	836
0	3972	237.152821503137	837
0	3974	237.257881106557	838
0	3976	237.333608727972	839
0	3978	237.412967785606	840
0	3980	237.788695024931	841
0	3981	237.921653663264	840
0	3984	238.070826061128	841
0	3986	238.755792683958	842
0	3987	238.794804215585	841
0	3990	238.797638313433	842
0	3992	238.82044202879	843
0	3994	238.874842750292	844
0	3995	238.97679601618	843
0	3998	238.99352836991	844
0	4000	239.01651357944	845
0	4001	239.02717981029	844
0	4003	239.037385009777	843
0	4005	239.345543307562	842
0	4007	239.793461257254	841
0	4009	239.845543731513	840
0	4011	239.939762023486	839
0	4013	239.940844773317	838
0	4016	240.000864781139	839
0	4018	240.039075304967	840
0	4020	240.253698827445	841
0	4021	240.357582559245	840
0	4024	240.967838817819	841
0	4026	241.226950541698	842
0	4028	241.260618279849	843
0	4030	241.67207552281	844
0	4031	241.673842091349	843
0	4034	241.882346844717	844
0	4036	241.964422064599	845
0	4038	242.0938678217	846
0	4039	242.345955051382	845
0	4041	242.430124274148	844
0	4044	242.457967905539	845
0	4045	242.471044986552	844
0	4048	242.486209213744	845
0	4050	242.629319222187	846
0	4051	242.758228126392	845
0	4054	242.792301827861	846
0	4056	242.988539794669	847
0	4057	243.039554976881	846
0	4060	243.129988113654	847
0	4062	243.282806951017	848
0	4064	243.9120021744	849
0	4065	243.916214675561	848
0	4068	243.988219391441	849
0	4069	244.044700731999	848
0	4072	244.145764642505	849
0	4073	244.255958328288	848
0	4076	244.353403465904	849
0	4078	244.476435594369	850
0	4080	244.613228805774	851
0	4081	244.646475137475	850
0	4084	244.661112448277	851
0	4085	244.710786670327	850
0	4088	244.726618131113	851
0	4090	244.786486133062	852
0	4092	244.825424441041	853
0	4094	244.966817094231	854
0	4095	245.22046078157	853
0	4098	245.228375528153	854
0	4100	245.381289432183	855
0	4102	245.396603046646	856
0	4104	245.40403286129	857
0	4106	245.418033711687	858
0	4108	245.437009481908	859
0	4110	245.755640767144	860
0	4112	245.909554671971	861
0	4114	245.962998870415	862
0	4116	246.131943583367	863
0	4117	246.23337543841	862
0	4120	246.241423667563	863
0	4122	246.24589560563	864
0	4123	246.360110558425	863
0	4126	246.360178276353	864
0	4127	246.659222896468	863
0	4130	246.928613964854	864
0	4132	247.109011521169	865
0	4134	247.138163163429	866
0	4136	247.355483769764	867
0	4137	247.514830384152	866
0	4140	247.626586610342	867
0	4141	247.967981421468	866
0	4144	248.125334841327	867
0	4146	248.317684043011	868
0	4147	248.41330252559	867
0	4149	248.419857052624	866
0	4152	248.548654705442	867
0	4154	248.593102341875	868
0	4156	248.678663443361	869
0	4158	248.697911260805	870
0	4160	248.898327571343	871
0	4162	248.947320705316	872
0	4163	248.960442259354	871
0	4165	248.975121887466	870
0	4168	248.982022280546	871
0	4170	248.98795929043	872
0	4172	249.030195923196	873
0	4174	249.085319633331	874
0	4176	249.141692132801	875
0	4178	249.308822259443	876
0	4180	249.447072970384	877
0	4181	249.487118443865	876
0	4183	249.510979924721	875
0	4186	249.513316178578	876
0	4188	249.696900054025	877
0	4190	249.75799816538	878
0	4192	249.941957471676	879
0	4193	249.953364136076	878
0	4196	250.087494511929	879
0	4198	250.202019183728	880
0	4200	250.229849316077	881
0	4202	250.764073270551	882
0	4203	251.285291804691	881
0	4205	251.459962074512	880
0	4208	251.840925653469	881
0	4209	251.88897867323	880
0	4212	251.986480991713	881
0	4214	252.065873565848	882
0	4216	252.310192416457	883
0	4218	252.415707433444	884
0	4220	252.482877462315	885
0	4222	252.622016722258	886
0	4224	252.702981295583	887
0	4226	253.022689430381	888
0	4228	253.234642125948	889
0	4230	253.304194820276	890
0	4232	253.338115592576	891
0	4234	253.55204377331	892
0	4236	253.612996171377	893
0	4238	253.629823017044	894
0	4239	253.702210694587	893
0	4241	253.714570298076	892
0	4243	253.95137973895	891
0	4246	254.290613958801	892
0	4248	254.424927779638	893
0	4249	254.676958137178	892
0	4252	254.75749428766	893
0	4253	254.949402304648	892
0	4255	255.01925342324	891
0	4258	255.114587416379	892
0	4259	255.133218960011	891
0	4262	255.148001239306	892
0	4263	255.365334795204	891
0	4265	255.381503426265	890
0	4267	255.406229885724	889
0	4269	255.431439263427	888
0	4272	255.595018613571	889
0	4274	255.608637798768	890
0	4276	255.609196202027	891
0	4278	255.718709624262	892
0	4280	255.887945840373	893
0	4281	255.976433310666	892
0	4284	256.183906517073	893
0	4286	256.249984509139	894
0	4288	256.378720575881	895
0	4290	256.489729946947	896
0	4291	256.56767590696	895
0	4293	256.780826785346	894
0	4296	257.007446404716	895
0	4298	257.055217745291	896
0	4300	257.226739355161	897
0	4302	257.232058152313	898
0	4303	257.276056959339	897
0	4306	257.290500067588	898
0	4308	257.392188723229	899
0	4310	257.403255707391	900
0	4311	257.900067580548	899
0	4313	258.052724159741	898
0	4316	258.132772015721	899
0	4318	258.142585149339	900
0	4320	258.401882447516	901
0	4322	258.447367691451	902
0	4324	258.556798583113	903
0	4325	258.641541871369	902
0	4327	258.706714067115	901
0	4330	258.832130126761	902
0	4331	258.930425363585	901
0	4333	258.961102746397	900
0	4336	259.14952769539	901
0	4337	259.40771017582	900
0	4340	259.585213803771	901
0	4342	259.783301805921	902
0	4344	259.933710562455	903
0	4346	260.024211828536	904
0	4347	260.090928753626	903
0	4350	260.341262570255	904
0	4352	260.451980075518	905
0	4354	260.462909910985	906
0	4355	260.727988732366	905
0	4358	260.813396701371	906
0	4359	260.872999468612	905
0	4362	260.979317894175	906
0	4364	261.005801410634	907
0	4366	261.035793824909	908
0	4367	261.268174686032	907
0	4370	261.298714291643	908
0	4372	261.311000094997	909
0	4374	261.348589754299	910
0	4376	261.370313162937	911
0	4378	261.450391524557	912
0	4379	261.664023856121	911
0	4381	261.8355164461	910
0	4383	261.892805754692	909
0	4386	261.903573169656	910
0	4388	262.021853637171	911
0	4390	262.03661757961	912
0	4392	262.112835575606	913
0	4394	262.245931880831	914
0	4396	262.341361940456	915
0	4398	262.954296237612	916
0	4400	262.964777744677	917
0	4402	263.036960138477	918
0	4404	263.151273007268	919
0	4406	263.390017969827	920
0	4408	263.456370087853	921
0	4410	263.466543514452	922
0	4412	263.733181063737	923
0	4414	263.795148068509	924
0	4416	264.055249942316	925
0	4418	264.081394882836	926
0	4420	264.239810116422	927
0	4422	264.264818804492	928
0	4423	264.467549926537	927
0	4425	264.522106466141	926
0	4428	264.788125101091	927
0	4430	265.039527655799	928
0	4432	265.150542326573	929
0	4433	265.256744537254	928
0	4436	265.26749661233	929
0	4438	265.382523665943	930
0	4440	265.427174760778	931
0	4442	265.653993779237	932
0	4444	265.673989481062	933
0	4446	265.778414688397	934
0	4447	266.265728067099	933
0	4450	266.369739384679	934
0	4452	266.389718529821	935
0	4454	266.544106868209	936
0	4456	266.620774752429	937
0	4458	266.790671003123	938
0	4460	266.810225681867	939
0	4462	266.92492616727	940
0	4464	266.939682207443	941
0	4466	267.070605840381	942
0	4468	267.076307377739	943
0	4470	267.249916094512	944
0	4472	267.527320127798	945
0	4474	267.544083353998	946
0	4475	267.561017562304	945
0	4478	267.621277874505	946
0	4480	267.624514855239	947
0	4482	267.831658988206	948
0	4483	267.970305876741	947
0	4486	268.001292875248	948
0	4488	268.071247608993	949
0	4490	268.158374824909	950
0	4492	268.182121916181	951
0	4494	268.222591402262	952
0	4496	268.236763516644	953
0	4498	268.318838134495	954
0	4500	268.418006515583	955
0	4501	268.437038754525	954
0	4504	268.460403209005	955
0	4505	268.753667637495	954
0	4508	268.766350888782	955
0	4509	268.782092857433	954
0	4511	268.959349640169	953
0	4514	269.039564630613	954
0	4516	269.04710755652	955
0	4517	269.316894035629	954
0	4519	269.469768434841	953
0	4521	269.477723677784	952
0	4524	269.480060369239	953
0	4526	269.49433662662	954
0	4528	269.509404256959	955
0	4529	269.873605839579	954
0	4532	270.132855154199	955
0	4534	270.258399598856	956
0	4536	270.337746749878	957
0	4538	270.432907067904	958
0	4540	270.64020522825	959
0	4541	270.650362040962	958
0	4544	270.685958508636	959
0	4546	270.721326825449	960
0	4548	270.794538710511	961
0	4550	270.797009367854	962
0	4552	270.883889736378	963
0	4554	270.886132500828	964
0	4556	271.01514972394	965
0	4558	271.480616127839	966
0	4560	271.502376737919	967
0	4562	271.940797708704	968
0	4564	271.953865094342	969
0	4566	272.068765941741	970
0	4567	272.195863196835	969
0	4570	272.20208813148	970
0	4571	272.549312434221	969
0	4574	272.592550122325	970
0	4576	272.606441689163	971
0	4578	272.64978193277	972
0	4580	272.80666024116	973
0	4581	272.904158315407	972
0	4584	272.972872396525	973
0	4586	273.095505724045	974
0	4588	273.096976128387	975
0	4590	273.117855725347	976
0	4592	273.507218078323	977
0	4594	273.550128639725	978
0	4596	273.768071611971	979
0	4598	273.812098383061	980
0	4600	274.197724546556	981
0	4602	274.21553260992	982
0	4604	274.60265092979	983
0	4606	275.084960426628	984
0	4608	275.321110395491	985
0	4610	275.379516403755	986
0	4612	275.394680135504	987
0	4613	275.512224589818	986
0	4616	275.695045542468	987
0	4618	276.058678079716	988
0	4619	276.200406349329	987
0	4621	276.387164632727	986
0	4623	276.428758057464	985
0	4626	276.540399270881	986
0	4628	276.630867108123	987
0	4629	276.640915360488	986
0	4631	276.786606439342	985
0	4634	276.800659539171	986
0	4636	277.111394460628	987
0	4638	277.335877689877	988
0	4640	277.346831265766	989
0	4642	277.816575495842	990
0	4644	277.819711129886	991
0	4646	277.958255789561	992
0	4648	278.102295439655	993
0	4650	278.651030030484	994
0	4651	278.655630496178	993
0	4653	278.744334407014	992
0	4655	278.789375888956	991
0	4658	279.05150644462	992
0	4660	279.268516475512	993
0	4662	279.283552830145	994
0	4663	279.491886235079	993
0	4665	279.707942108235	992
0	4668	279.831644733067	993
0	4670	279.881623100281	994
0	4671	279.901139633136	993
0	4674	280.104157807636	994
0	4676	280.21336099765	995
0	4677	280.257497824994	994
0	4679	280.305112296023	993
0	4682	280.519925336674	994
0	4684	280.587555834647	995
0	4685	280.587630946102	994
0	4688	280.736129364226	995
0	4690	280.86301699238	996
0	4691	281.114550587388	995
0	4694	281.217392396197	996
0	4696	281.570707171482	997
0	4698	281.677796076027	998
0	4700	282.367528044604	999
0	4702	282.413286874017	1000
0	4704	282.75131399427	1001
0	4705	282.921723360421	1000
0	4707	282.939205128119	999
0	4709	282.939352095186	998
0	4712	283.141820826999	999
0	4713	283.187383301275	998
0	4716	283.195253726862	999
0	4718	283.220614488328	1000
0	4720	283.46391809179	1001
0	4722	283.567595481694	1002
0	4723	283.594228917181	1001
0	4726	283.637014828878	1002
0	4728	283.65810668092	1003
0	4730	283.660486087573	1004
0	4732	283.738247741309	1005
0	4734	283.86416442267	1006
0	4736	283.877134748309	1007
0	4738	283.881139820655	1008
0	4740	283.901054844303	1009
0	4741	284.0413593591	1008
0	4744	284.186755208128	1009
0	4746	284.269438235187	1010
0	4748	284.313420967765	1011
0	4749	284.688782842513	1010
0	4752	284.737532102979	1011
0	4754	284.786756973389	1012
0	4756	284.967835218874	1013
0	4758	285.110088834639	1014
0	4760	285.165216160424	1015
0	4762	285.175995395985	1016
0	4764	285.221824359716	1017
0	4765	285.332218012158	1016
0	4768	285.511417407708	1017
0	4770	285.517360919382	1018
0	4772	285.63466710898	1019
0	4774	285.634868765027	1020
0	4776	285.778578455147	1021
0	4778	285.783686934119	1022
0	4780	285.917503653206	1023
0	4782	286.267330060701	1024
0	4784	286.504480980529	1025
0	4785	286.625026674385	1024
0	4788	286.672812253818	1025
0	4789	286.713045565634	1024
0	4792	286.845422844835	1025
0	4794	287.036326736144	1026
0	4796	287.492217845152	1027
0	4798	287.549456596604	1028
0	4800	287.611596415448	1029
0	4802	287.751077133796	1030
0	4804	287.877520178044	1031
0	4806	287.896761159634	1032
0	4807	287.997563837548	1031
0	4809	288.10749245991	1030
0	4812	288.247753681447	1031
0	4814	288.365520432533	1032
0	4816	288.462193294169	1033
0	4818	288.470798819557	1034
0	4820	288.678932931796	1035
0	4821	288.683607254652	1034
0	4824	288.872031885287	1035
0	4826	288.876733205792	1036
0	4828	288.884223720433	1037
0	4829	289.013882183283	1036
0	4831	289.376601000822	1035
0	4833	289.852033045397	1034
0	4835	289.891012563562	1033
0	4838	290.018883937161	1034
0	4839	290.023222633041	1033
0	4842	290.156512952141	1034
0	4844	290.179889541607	1035
0	4846	290.1850365833	1036
0	4848	290.242191191522	1037
0	4850	290.277584918646	1038
0	4852	290.495014204538	1039
0	4854	290.579419387536	1040
0	4856	290.691534708659	1041
0	4857	290.704891836739	1040
0	4860	290.857442061835	1041
0	4862	290.877970846566	1042
0	4864	290.898390736479	1043
0	4865	291.086018018602	1042
0	4867	291.104122407409	1041
0	4870	291.124663191224	1042
0	4872	291.207623788691	1043
0	4874	291.229897419076	1044
0	4875	291.329853649702	1043
0	4878	291.345372999426	1044
0	4880	291.349348524	1045
0	4882	291.369274969398	1046
0	4884	291.52644626138	1047
0	4886	291.74857418633	1048
0	4887	291.77651585784	1047
0	4890	291.796975225172	1048
0	4891	291.942173678513	1047
0	4894	292.248273242035	1048
0	4896	292.33942966003	1049
0	4897	292.591944297425	1048
0	4900	292.626252373688	1049
0	4902	292.649280824593	1050
0	4904	292.665914154926	1051
0	4906	292.723856785177	1052
0	4907	292.925685854134	1051
0	4910	293.025013162357	1052
0	4912	293.032519227297	1053
0	4914	293.080933205682	1054
0	4916	293.085257368462	1055
0	4918	293.30514919236	1056
0	4920	293.413479256929	1057
0	4921	293.447164756373	1056
0	4924	293.546934992985	1057
0	4926	293.61239712668	1058
0	4928	293.843456156146	1059
0	4930	293.899793123121	1060
0	4932	293.914961461488	1061
0	4934	293.952843241064	1062
0	4936	294.011465697652	1063
0	4938	294.043170134068	1064
0	4940	294.160763536456	1065
0	4941	294.205186606003	1064
0	4943	294.310384966742	1063
0	4946	294.439022444233	1064
0	4947	294.457579925613	1063
0	4950	294.587261077967	1064
0	4952	294.61085180316	1065
0	4954	295.144638949317	1066
0	4955	295.321396745547	1065
0	4958	295.33050138514	1066
0	4960	295.399706338061	1067
0	4962	295.54778335579	1068
0	4964	295.563731690699	1069
0	4966	295.725677423209	1070
0	4968	295.819554653626	1071
0	4970	295.943146514279	1072
0	4971	295.960254976933	1071
0	4974	296.001242001714	1072
0	4976	296.184898814901	1073
0	4978	296.221356545011	1074
0	4979	296.620461746603	1073
0	4982	296.686012190485	1074
0	4983	296.707724525948	1073
0	4986	296.914082232995	1074
0	4988	296.968423703695	1075
0	4989	296.970491793404	1074
0	4991	297.125756635669	1073
0	4993	297.135698414992	1072
0	4995	297.175238862479	1071
0	4998	297.447532121544	1072
0	4999	297.542984799449	1071
0	5002	297.58962367704	1072
0	5004	298.021094157034	1073
0	5006	298.17856559686	1074
0	5007	298.19919971894	1073
0	5010	298.23009282759	1074
0	5011	298.244602059458	1073
0	5013	298.329742791827	1072
0	5015	298.45588873421	1071
0	5017	298.942046554933	1070
0	5020	298.986754147412	1071
0	5022	299.003001810064	1072
0	5024	299.077872854156	1073
0	5026	299.514662398398	1074
0	5027	299.80483217315	1073
0	5030	299.827293030402	1074
0	5031	299.89786370763	1073
0	5034	299.922400709129	1074
0	5036	300.134712700133	1075
0	5038	300.763337596851	1076
0	5040	300.769818041989	1077
0	5042	301.151324893058	1078
0	5044	301.298274649099	1079
0	5045	301.356089462416	1078
0	5048	301.467774904564	1079
0	5050	301.772728892317	1080
0	5052	301.795720916318	1081
0	5053	302.093687340065	1080
0	5055	302.172191094836	1079
0	5058	302.230685270826	1080
0	5060	302.243425928995	1081
0	5062	302.245835291037	1082
0	5063	302.398333845448	1081
0	5066	302.644403309993	1082
0	5068	302.656254297992	1083
0	5070	302.779468947584	1084
0	5072	302.968333212781	1085
0	5074	303.092370608894	1086
0	5075	303.142701761635	1085
0	5078	303.354668285214	1086
0	5080	303.48858440228	1087
0	5081	303.72482116446	1086
0	5083	303.908746759973	1085
0	5085	304.00776192596	1084
0	5087	304.032096662326	1083
0	5090	304.395015015375	1084
0	5091	304.584575295957	1083
0	5093	304.714895185022	1082
0	5096	305.007364805591	1083
0	5097	305.031596353933	1082
0	5099	305.134171175506	1081
0	5101	305.14051653478	1080
0	5104	305.281429451339	1081
0	5106	305.388846870193	1082
0	5107	305.628465533057	1081
0	5110	305.702275302012	1082
0	5111	306.002799570379	1081
0	5114	306.194928864431	1082
0	5116	306.349749372725	1083
0	5117	306.433355754146	1082
0	5120	306.466750216619	1083
0	5121	306.606835542306	1082
0	5124	306.707738616999	1083
0	5126	306.764222461363	1084
0	5127	306.773710656623	1083
0	5130	306.851994111072	1084
0	5132	306.88211539255	1085
0	5134	307.052764685107	1086
0	5136	307.119964629964	1087
0	5138	307.150560334613	1088
0	5140	307.171855461372	1089
0	5141	307.39692810691	1088
0	5144	307.507029798804	1089
0	5146	307.721556844581	1090
0	5148	307.793125636119	1091
0	5150	307.875705289996	1092
0	5152	308.136674548492	1093
0	5154	308.489080660262	1094
0	5155	308.761994830549	1093
0	5158	308.86232530328	1094
0	5160	308.894060791246	1095
0	5162	309.025735955043	1096
0	5164	309.102884265725	1097
0	5166	309.145661511811	1098
0	5168	309.272580751149	1099
0	5170	309.454961045661	1100
0	5172	309.459873863794	1101
0	5174	309.544302873223	1102
0	5175	309.59326731975	1101
0	5177	309.635982708682	1100
0	5180	309.781036462881	1101
0	5181	309.786555998586	1100
0	5183	309.930199487793	1099
0	5186	310.089736298759	1100
0	5188	310.101806531075	1101
0	5190	310.13977426032	1102
0	5192	310.179781407934	1103
0	5193	310.296297350279	1102
0	5195	310.521271854026	1101
0	5198	310.556695355901	1102
0	5199	310.604259127397	1101
0	5201	310.681341495475	1100
0	5204	310.683314915733	1101
0	5206	310.735616643574	1102
0	5207	310.771583342105	1101
0	5210	311.071454874993	1102
0	5211	311.244889924754	1101
0	5214	311.286973314502	1102
0	5216	311.335919767358	1103
0	5218	311.588047903229	1104
0	5219	311.849005646116	1103
0	5222	311.942557813224	1104
0	5223	311.944655070567	1103
0	5226	312.001957857505	1104
0	5228	312.078104986922	1105
0	5229	312.078720939952	1104
0	5232	312.363918756883	1105
0	5234	312.426214147475	1106
0	5236	312.646441193524	1107
0	5238	312.689436061283	1108
0	5240	312.771576927598	1109
0	5242	312.781842815308	1110
0	5244	312.798539613529	1111
0	5246	312.910026969357	1112
0	5248	313.026581125113	1113
0	5250	313.101320550382	1114
0	5252	313.544126698636	1115
0	5254	313.606241650512	1116
0	5256	313.693745515837	1117
0	5258	313.917767484736	1118
0	5260	314.122986310595	1119
0	5261	314.26758880802	1118
0	5264	314.400968599532	1119
0	5265	314.642361309966	1118
0	5268	314.654109950184	1119
0	5269	314.728726317839	1118
0	5272	314.927150046784	1119
0	5273	314.941910348661	1118
0	5276	315.108295436784	1119
0	5277	315.237858542561	1118
0	5279	315.256043050351	1117
0	5281	315.622743807149	1116
0	5284	315.700144232221	1117
0	5286	315.838325298358	1118
0	5288	316.271691118947	1119
0	5289	316.564729052957	1118
0	5292	316.597864153411	1119
0	5293	316.614646289861	1118
0	5296	316.6236870689	1119
0	5298	316.658503230989	1120
0	5299	316.658577704365	1119
0	5301	316.862775769446	1118
0	5304	317.216290139514	1119
0	5306	317.232933022492	1120
0	5308	317.46576094264	1121
0	5310	317.487386355856	1122
0	5312	317.541843727442	1123
0	5314	317.657454130532	1124
0	5316	317.717066153542	1125
0	5318	317.718999900705	1126
0	5320	317.727268701054	1127
0	5322	317.78893163174	1128
0	5324	317.812569759571	1129
0	5326	317.841070692025	1130
0	5328	318.123489294369	1131
0	5329	318.259896853433	1130
0	5332	318.676469423967	1131
0	5334	318.811843942349	1132
0	5336	318.828933852931	1133
0	5337	318.938605360317	1132
0	5339	319.312367528462	1131
0	5342	319.439187789559	1132
0	5344	319.5331941238	1133
0	5346	319.615618267612	1134
0	5348	319.637150832832	1135
0	5350	319.692357871224	1136
0	5352	319.778846225744	1137
0	5354	319.875015961634	1138
0	5356	319.907858601158	1139
0	5358	319.910363065409	1140
0	5360	320.188763196436	1141
0	5362	320.381294962578	1142
0	5363	320.575560170668	1141
0	5366	320.737079203095	1142
0	5367	321.083148084785	1141
0	5370	321.139200445493	1142
0	5372	321.415726247165	1143
0	5374	321.480442625958	1144
0	5376	321.564130066329	1145
0	5377	321.632631737079	1144
0	5379	321.877642919765	1143
0	5382	321.920236294403	1144
0	5384	322.054075134555	1145
0	5386	322.126490922409	1146
0	5387	322.196529516147	1145
0	5390	322.365871598419	1146
0	5391	322.372507141999	1145
0	5394	322.517693168751	1146
0	5395	322.71818572452	1145
0	5397	322.759113116349	1144
0	5400	322.88979280327	1145
0	5402	322.908891813687	1146
0	5403	322.972174737239	1145
0	5405	322.975891145099	1144
0	5408	323.209914848232	1145
0	5410	323.51050099304	1146
0	5412	323.572124888483	1147
0	5414	323.650871992829	1148
0	5416	324.053452811119	1149
0	5418	324.059288010223	1150
0	5420	324.191895805111	1151
0	5421	324.391274837616	1150
0	5424	324.563647163932	1151
0	5426	324.618499609079	1152
0	5428	324.649933404088	1153
0	5430	324.763704307419	1154
0	5432	324.868313481684	1155
0	5434	324.987543822995	1156
0	5436	325.054968489415	1157
0	5438	325.326747627868	1158
0	5440	325.43092498493	1159
0	5442	325.472038401035	1160
0	5444	325.992364046568	1161
0	5445	326.025890501458	1160
0	5448	326.336423818789	1161
0	5450	326.559216749993	1162
0	5452	326.567596525365	1163
0	5454	326.631880550043	1164
0	5456	326.642800903651	1165
0	5458	326.702049112463	1166
0	5460	326.715809494666	1167
0	5462	326.772272346048	1168
0	5464	326.856405114274	1169
0	5465	326.892841780393	1168
0	5467	326.898877595316	1167
0	5470	326.992677228589	1168
0	5471	327.280435958252	1167
0	5474	327.319924672762	1168
0	5476	327.659467056889	1169
0	5478	327.768276838285	1170
0	5480	327.845351541815	1171
0	5482	328.200182683996	1172
0	5484	328.226839372539	1173
0	5486	328.252199949983	1174
0	5487	328.436294421334	1173
0	5489	328.506159565525	1172
0	5492	328.541736639137	1173
0	5494	328.618137566997	1174
0	5496	328.703367554985	1175
0	5498	328.84463969223	1176
0	5499	328.881874726591	1175
0	5502	328.936664117268	1176
0	5503	328.963758723293	1175
0	5505	328.967489849346	1174
0	5508	329.029906283875	1175
0	5509	329.316293128052	1174
0	5512	329.327446791996	1175
0	5513	329.419292815687	1174
0	5515	329.492057284728	1173
0	5518	329.646749499616	1174
0	5520	329.658472365883	1175
0	5521	329.729202073826	1174
0	5523	329.949657253152	1173
0	5526	330.145905736224	1174
0	5528	330.430747493172	1175
0	5530	330.518377807754	1176
0	5532	330.73290368115	1177
0	5534	331.140077367693	1178
0	5536	331.274869652415	1179
0	5538	331.38484479944	1180
0	5540	331.388933319135	1181
0	5542	331.428751000369	1182
0	5544	331.536998914911	1183
0	5546	331.590894097183	1184
0	5547	331.653454315873	1183
0	5549	331.708984030787	1182
0	5551	331.710903581314	1181
0	5553	331.760818590258	1180
0	5555	331.887389546733	1179
0	5557	331.90268720015	1178
0	5559	332.347832724795	1177
0	5562	332.468052105403	1178
0	5564	332.58687494416	1179
0	5565	332.848212189058	1178
0	5568	333.140309692021	1179
0	5570	333.176156952174	1180
0	5572	333.39422841329	1181
0	5574	333.475649830188	1182
0	5575	333.6509893293	1181
0	5578	333.665183145784	1182
0	5579	333.792501135115	1181
0	5581	333.996272539203	1180
0	5584	334.179184571597	1181
0	5586	334.183744642503	1182
0	5587	334.361701440989	1181
0	5589	334.390747864231	1180
0	5592	334.542395051067	1181
0	5594	334.602531272401	1182
0	5596	334.676068294161	1183
0	5598	334.769617286776	1184
0	5600	334.868061119303	1185
0	5602	334.926821639883	1186
0	5604	334.959307995157	1187
0	5606	335.232781512112	1188
0	5608	335.313428791974	1189
0	5610	335.397918209255	1190
0	5612	335.434251279379	1191
0	5614	335.51540222705	1192
0	5615	335.525209273714	1191
0	5617	335.601282980863	1190
0	5620	335.778682531454	1191
0	5622	335.942052799748	1192
0	5624	335.999413102626	1193
0	5626	336.22752434414	1194
0	5627	336.227990620821	1193
0	5630	336.503241408055	1194
0	5632	336.53341767273	1195
0	5634	336.657609873056	1196
0	5635	336.738892160141	1195
0	5637	337.00054568656	1194
0	5640	337.299892342271	1195
0	5642	337.389260187287	1196
0	5643	337.413522772272	1195
0	5646	337.530325626407	1196
0	5648	337.539983398409	1197
0	5650	337.58234023039	1198
0	5651	337.692202667153	1197
0	5654	337.762310473318	1198
0	5656	337.831386343083	1199
0	5658	337.918416110352	1200
0	5659	337.950772218936	1199
0	5662	337.978757014558	1200
0	5663	338.025148957813	1199
0	5665	338.094637578658	1198
0	5668	338.165071653842	1199
0	5670	338.297909080758	1200
0	5671	338.317259429861	1199
0	5674	338.404612911078	1200
0	5675	338.443994104574	1199
0	5678	338.728507502119	1200
0	5679	338.962345231173	1199
0	5682	339.120950200644	1200
[...]
8	6504	391.657398857974	932
8	6512	392.373275840723	933
8	6520	392.705869241226	934
8	6522	392.744019823602	935
8	6546	394.328912933178	936
8	6552	394.824760282739	937
8	6558	395.130625236837	938
8	6562	395.259262219954	939
8	6566	395.536951292903	940
8	6568	395.701433383914	941
8	6570	395.785850463681	942
8	6576	396.124833891519	943
8	6578	396.166201037725	944
8	6582	396.348557737613	945
8	6584	396.420918712485	946
8	6592	396.68409541669	947
8	6598	397.083859250995	948
8	6604	397.224491832111	949
8	6606	397.502602144506	950
8	6610	397.776650175681	951
8	6626	398.626875252869	952
8	6628	398.764811145681	953
8	6630	399.062065407403	954
8	6632	399.140753682855	955
8	6638	399.33538537075	956
8	6640	399.618799800926	957
8	6644	400.052781858252	958
8	6646	400.347004560229	959
8	6650	400.488820821122	960
8	6654	400.734188047572	961
8	6690	403.021834614769	962
8	6694	403.543173643817	963
8	6700	403.834052766495	964
8	6702	403.886634025486	965
8	6704	403.93696641644	966
8	6712	404.043396308884	967
8	6714	404.235669657971	968
8	6726	404.541129645199	969
8	6736	405.09619686349	970
8	6742	405.501552510426	971
8	6756	406.855848871588	972
8	6766	407.19057335356	973
8	6768	407.212635928827	974
8	6770	407.310207796772	975
8	6790	407.991706985588	976
8	6792	408.004009617899	977
8	6794	408.08972313598	978
8	6806	408.675827426678	979
8	6814	409.416061685312	980
8	6820	410.097634327079	981
8	6822	410.165657162596	982
8	6824	410.310733617078	983
8	6826	410.35627788	984
8	6846	411.628346648998	985
8	6850	412.222976248669	986
8	6854	412.400780209009	987
8	6856	412.541317178893	988
8	6860	412.96925592894	989
8	6868	414.170743352958	990
8	6882	415.463979972692	991
8	6884	415.502263194045	992
8	6886	415.569530897589	993
8	6890	415.680453909161	994
8	6896	415.890358086791	995
8	6900	416.099990198288	996
8	6914	416.688303552767	997
8	6918	416.805470747112	998
8	6922	417.35784339657	999
8	6934	417.851664944482	1000
8	6938	418.055112395334	1001
8	6950	418.750984074653	1002
8	6952	418.887175351267	1003
8	6958	419.033029899055	1004
8	6972	419.424031444711	1005
8	6978	419.550582890031	1006
8	6982	419.878109512407	1007
8	6992	420.509883301201	1008
8	6994	420.730229845599	1009
8	7002	421.052711793833	1010
8	7006	421.594644490745	1011
8	7016	422.390015471887	1012
8	7022	422.57957527016	1013
8	7024	422.579793718144	1014
8	7030	422.801427376083	1015
8	7032	422.827692650154	1016
8	7040	423.308889627145	1017
8	7042	423.405921210695	1018
8	7046	423.455087525955	1019
8	7070	424.735683301649	1020
8	7072	424.856258647839	1021
8	7074	424.923284372839	1022
8	7092	426.177940617225	1023
8	7094	426.328353931241	1024
8	7106	427.257157466698	1025
8	7120	428.039051839583	1026
8	7124	428.222124687558	1027
8	7128	428.322728250988	1028
8	7132	428.670678000175	1029
8	7138	428.986210178938	1030
8	7142	429.220104026901	1031
8	7152	429.833010460535	1032
8	7154	429.911448476489	1033
8	7158	430.098498107396	1034
8	7176	431.058196224186	1035
8	7190	431.741323320956	1036
8	7198	432.50947694132	1037
8	7200	432.808367616972	1038
8	7202	432.88629005558	1039
8	7206	433.09156565098	1040
8	7214	433.302682740463	1041
8	7218	433.580483596867	1042
8	7220	433.618050746649	1043
8	7228	433.847123604776	1044
8	7234	434.05549910797	1045
8	7238	434.297836728608	1046
8	7242	434.409677834685	1047
8	7244	434.567647951522	1048
8	7262	435.526346412617	1049
8	7266	435.809760782264	1050
8	7268	435.991975269723	1051
8	7276	436.649900357397	1052
8	7284	437.157398352293	1053
8	7306	438.302154842668	1054
8	7308	438.607716645809	1055
8	7320	439.255810949595	1056
8	7322	439.296536882092	1057
8	7326	439.322072829395	1058
8	7330	439.45609080878	1059
8	7332	439.519196036166	1060
8	7338	440.112903983019	1061
8	7340	440.151631529832	1062
8	7344	440.671747186645	1063
8	7352	440.951627650169	1064
8	7374	442.293922153945	1065
8	7376	442.454481751985	1066
8	7382	442.697589962052	1067
8	7394	442.94030750132	1068
8	7404	443.923530298575	1069
8	7418	444.595435130788	1070
8	7424	445.191748536954	1071
8	7430	445.770392272484	1072
8	7432	445.839427039095	1073
8	7434	446.05015947227	1074
8	7456	447.279258213849	1075
8	7460	447.713081293718	1076
8	7492	450.154855021169	1077
8	7496	450.254498917917	1078
8	7498	450.404412804224	1079
8	7510	451.019383212517	1080
8	7516	451.256977776773	1081
8	7522	451.887047761265	1082
8	7526	452.056009141026	1083
8	7536	452.663432743078	1084
8	7540	452.799499599757	1085
8	7556	453.215521093071	1086
8	7558	453.603787392209	1087
8	7562	453.879592560978	1088
8	7574	454.471040414205	1089
8	7586	455.084035501219	1090
8	7590	455.152853984396	1091
8	7598	455.590401354054	1092
8	7602	455.945290078041	1093
8	7620	457.570506330907	1094
8	7630	458.0342221959	1095
8	7634	458.349956489066	1096
8	7636	458.405273641741	1097
8	7638	458.435679471549	1098
8	7642	458.502629241353	1099
8	7646	458.86215332053	1100
8	7652	459.103556918526	1101
8	7654	459.35878806122	1102
8	7660	459.926919660117	1103
8	7672	460.679382522587	1104
8	7674	460.761098765259	1105
8	7676	460.812286743206	1106
8	7682	461.075293549876	1107
9	17	1.135602561038	1.135602561038
9	21	1.356021955706	0.426219849669
9	163	9.342536856396	7.924231537162
9	165	9.350707091756	7.09629617236
9	175	10.065702157131	7.581667169107
9	179	10.116051920906	6.056931968544
9	185	10.411182837608	5.714449034134
9	187	10.625409125699	5.872702241909
9	191	10.869042094972	5.795487860166
9	195	11.205175977217	6.009597497043
9	197	11.212763404897	5.944545911077
9	217	12.246439551583	6.538058127771
9	223	12.724882671366	6.541753955806
9	225	12.749728787553	6.514319459105
9	243	13.881737157173	4.299747665471
9	245	13.950988139631	4.047108147128
9	247	13.997770303548	3.887639696084
9	249	14.085322542151	3.41360778392
9	269	15.762924011327	2.544953656774
9	271	15.90339444708	2.462714361567
9	285	16.867801568481	3.099298340786
9	289	17.087437245253	11.623334346095
9	291	17.113956205846	2.28333437965
9	311	17.776579531948	2.051714255069
9	333	18.885843115335	1.890825584477
9	341	19.148698004344	3.779456696074
9	343	19.561161363821	7.395851659664
9	349	19.720061349654	11.734545178979
9	431	24.68762594339	9.734806393153
9	579	35.150162121916	17.234503355314
9	581	35.428481906276	13.805889152125
9	597	36.635647667486	18.549815531766
9	607	37.035965841657	18.666181629197
9	609	37.094195433036	13.887939281314
9	611	37.235885085934	13.975355384965
9	1563	93.671542730239	75.049586614485
9	1567	94.093882573703	70.16510149568
9	1573	94.39177488582	70.193281949095
9	1581	94.919472929726	68.652075112746
9	1585	94.972346413572	68.613679295651
9	1587	95.181494425607	68.067915579881
9	1589	95.210164579332	68.07969234083
9	1591	95.28548256942	66.130086911516
9	1605	96.189913086838	66.728296403874
9	1607	96.359375927381	66.803999768816
9	1855	110.757764627011	79.133789418074
9	1863	111.281678775556	78.659117582874
9	1891	112.707166846606	78.415638486997
9	1897	112.731079231772	78.394973727165
9	1903	112.959038257895	78.59389657223
9	1919	114.079667039487	92.076140399688
9	1921	114.161674921997	91.906992883068
9	1935	114.753756171261	92.177021778171
9	1939	115.0614040917	78.162742871318
9	1963	116.526763117088	78.856655273534
9	1965	116.681038194706	78.880754645378
9	1971	117.199827093934	77.858937827307
9	1973	117.296914491403	77.38649639944
9	1977	117.589005557499	76.901255996632
9	1979	117.599404655576	76.592560791913
9	1991	117.900006762747	75.064544714918
9	1993	118.404731832142	75.473139063892
9	2015	119.665316501621	75.42158940779
9	2027	119.831345368157	75.446946477876
9	2031	119.941556542972	75.388080295269
9	2137	125.928980367624	77.487000603245
9	2141	126.204157759008	75.932349329247
9	2149	126.61223259419	76.338396003768
9	2177	128.484941679871	77.789872526266
9	2179	128.569154995153	77.697287553917
9	2183	128.610342340641	77.48211757809
9	2263	134.185248141427	81.899938378255
9	2659	157.401791237309	103.88557200979
9	2665	157.990672900506	104.09324183088
9	2667	158.054246172368	103.97519399329
9	2711	161.121500848504	101.01132592176
9	2715	161.346630929231	100.9140017569
9	2727	162.28620880055	100.92298589515
9	2745	163.046913956728	100.04269784507
9	2783	165.453042400211	100.31856717336
9	2785	165.522505025494	100.34361360731
9	2787	165.725792807115	100.49729062569
9	2837	167.861773962858	100.16798189718
9	2851	168.890413527123	100.21503058685
9	2855	169.271662542429	100.55102586708
9	2857	169.388440971121	99.75303321784
9	2919	172.947499845416	102.55151352887
9	2921	173.018650548559	102.43708337162
9	3651	219.298328390612	147.59677991248
9	3763	225.807937242698	151.22415838652
9	3771	225.97934028437	151.0974754825
9	3775	226.094103922523	149.82766687923
9	3793	227.028767491205	149.52216722837
9	3795	227.219373819594	149.64152208394
9	3807	227.647137159168	149.26498987436
9	3809	227.792368695242	149.23456076966
9	3829	228.619132957026	148.76125617288
9	3831	228.757706288024	148.42677863325
9	3845	229.86384178153	147.31032890409
9	3847	230.106955687177	147.39402228553
9	3871	231.774653595726	145.39982833112
9	3887	232.423539526445	144.17714082457
9	3895	232.726006025561	143.97560055344
9	3897	232.735851483189	143.57714966665
9	3899	232.830013829791	143.39417777654
9	3901	232.879198856546	142.8563277349
9	3907	233.223484739552	143.14825748119
9	4013	239.940844773317	149.06105108699
9	4021	240.357582559245	149.34899643975
9	4031	241.673842091349	150.36189976723
9	4039	242.345955051382	149.80269059256
9	4041	242.430124274148	218.902619189
9	4045	242.471044986552	149.35004316336
9	4065	243.916214675561	219.79386855146
9	4073	244.255958328288	149.68081116381
9	4081	244.646475137475	149.68402110482
9	4085	244.710786670327	215.34808474109
9	4165	248.975121887466	152.11542134038
9	4255	255.01925342324	157.0925158192
9	4263	255.365334795204	157.15530240013
9	4265	255.381503426265	156.68035193898
9	4267	255.406229885724	156.42036034151
9	4269	255.431439263427	156.08106635852
9	4337	259.40771017582	159.73547486799
9	4383	261.892805754692	158.81866013072
9	5117	306.433355754146	202.6052991573
9	5121	306.606835542306	202.52105517046
9	5293	316.614646289861	209.53147232126
9	5301	316.862775769446	208.20488661861
9	5397	322.759113116349	213.33755369765
9	5523	329.949657253152	218.50857685021
9	5553	331.760818590258	220.24685199989
9	5555	331.887389546733	220.04288305595
9	5557	331.90268720015	312.20159773762
9	5559	332.347832724795	220.19684259967
9	5565	332.848212189058	220.63111626402
9	5581	333.996272539203	221.28389500838
9	5589	334.390747864231	221.43245699133
9	5679	338.962345231173	225.51316190548
9	5685	339.270290005499	225.62526440986
9	5689	339.31711802123	225.48203290992
9	5695	339.561490380397	302.98844452597
9	5697	339.573653577903	224.84274129865
9	5725	341.003278936384	303.6375875497
9	5811	346.489910126829	307.51570469679
9	5815	346.660585754565	305.03206650193
9	5837	347.800740164142	229.90883389888
9	6017	358.795494148523	239.52985572571
9	6033	359.387903805346	239.93863129878
9	6037	359.488005117507	239.878233782
9	6039	359.530155573759	239.9160202901
9	6053	361.103447601431	316.83637663578
9	6055	361.13058995265	241.42591451503
9	6059	361.201342235099	241.37072940513
9	6075	362.053406609888	316.93447112259
9	6433	387.462166279547	340.26524524447
9	6443	387.762675229015	266.49117568169
9	6605	397.502602144506	274.70297677827
9	6609	397.776650175681	274.4629221503
9	6629	399.062065407403	275.585153366
9	6631	399.140753682855	274.70906413221
9	6639	399.618799800926	274.28553166301
9	6645	400.347004560229	273.93393037229
9	6649	400.488820821122	350.05798528167
9	6653	400.734188047572	272.94183319818
9	6755	406.855848871588	277.54084628479
9	6769	407.310207796772	277.38320708152
9	6813	409.416061685312	278.03446719678
9	6819	410.097634327079	278.67490855581
9	6821	410.165657162596	278.09401310675
9	6823	410.310733617078	277.47725442106
9	6825	410.35627788	277.38092363271
9	6885	415.569530897589	363.06164646471
9	6889	415.680453909161	281.1821822438
9	6895	415.890358086791	280.83190688005
9	6933	417.851664944482	281.74926039984
9	6951	418.887175351267	281.86872548809
9	7023	422.579793718144	284.83348890464
9	7029	422.801427376083	284.96313559077
9	7031	422.827692650154	284.95609829622
9	7041	423.405921210695	285.33464440611
9	7045	423.455087525955	284.92287109223
9	7157	430.098498107396	289.09145034322
9	7201	432.88629005558	290.24326642105
9	7243	434.567647951522	289.34327822978
9	7343	440.671747186645	294.59452785271
9	7525	452.056009141026	305.49918177599
9	7557	453.603787392209	304.74076054748
9	7561	453.879592560978	304.97210853507
9	7675	460.812286743206	309.59920807222
10	17	1.135602561038	0.817252759212
10	21	1.356021955706	0.220419394668
10	163	9.342536856396	0.627558447049
10	165	9.350707091756	0.00817023536
10	175	10.065702157131	0.714995065375
10	179	10.116051920906	0.050349763775
10	185	10.411182837608	0.295130916702
10	187	10.625409125699	0.214226288091
10	191	10.869042094972	0.243632969273
10	195	11.205175977217	0.336133882245
10	197	11.212763404897	0.00758742768
10	217	12.246439551583	0.17820739802
10	223	12.724882671366	0.478443119783
10	225	12.749728787553	0.024846116187
10	243	13.881737157173	0.251176632396
10	245	13.950988139631	0.069250982458
10	247	13.997770303548	0.046782163917
10	249	14.085322542151	0.087552238603
10	269	15.762924011327	0.051222706124
10	271	15.90339444708	0.140470435753
10	285	16.867801568481	0.153080379545
10	289	17.087437245253	5.874673840356
10	291	17.113956205846	0.026518960593
10	311	17.776579531948	0.039460123367
10	333	18.885843115335	0.503973524044
10	341	19.148698004344	1.832957106932
10	343	19.561161363821	5.183765780037
10	349	19.720061349654	6.970332562101
10	431	24.68762594339	7.573669737544
10	579	35.150162121916	15.430100772262
10	581	35.428481906276	0.27831978436
10	597	36.635647667486	14.855124391116
10	607	37.035965841657	14.465811730405
10	609	37.094195433036	0.058229591379
10	611	37.235885085934	0.141689652898
10	1563	93.671542730239	70.406626651403
10	1567	94.093882573703	0.422339843464
10	1573	94.39177488582	0.228984620571
10	1581	94.919472929726	0.382386569569
10	1585	94.972346413572	0.052873483846
10	1587	95.181494425607	0.209148012035
10	1589	95.210164579332	0.028670153725
10	1591	95.28548256942	0.075317990088
10	1605	96.189913086838	0.007478188168
10	1607	96.359375927381	0.169462840543
10	1855	110.757764627011	0.306831861829
10	1863	111.281678775556	0.523914148545
10	1891	112.707166846606	0.117403060769
10	1897	112.731079231772	0.023912385166
10	1903	112.959038257895	0.227959026123
10	1919	114.079667039487	78.651185133211
10	1921	114.161674921997	78.373005941336
10	1935	114.753756171261	78.118108503775
10	1939	115.0614040917	0.307647920439
10	1963	116.526763117088	0.008346887444
10	1965	116.681038194706	0.154275077618
10	1971	117.199827093934	0.082139107494
10	1973	117.296914491403	0.097087397469
10	1977	117.589005557499	0.292091066096
10	1979	117.599404655576	0.010399098077
10	1991	117.900006762747	0.056656813918
10	1993	118.404731832142	0.504725069395
10	2015	119.665316501621	0.351286031487
10	2027	119.831345368157	0.138207833483
10	2031	119.941556542972	0.110211174815
10	2137	125.928980367624	0.005330097931
10	2141	126.204157759008	0.275177391384
10	2149	126.61223259419	0.408074835182
10	2177	128.484941679871	0.690653351897
10	2179	128.569154995153	0.084213315282
10	2183	128.610342340641	0.041187345488
10	2263	134.185248141427	0.594971901736
10	2659	157.401791237309	0.004597300083
10	2665	157.990672900506	0.588881663197
10	2667	158.054246172368	0.063573271862
10	2711	161.121500848504	0.414898037641
10	2715	161.346630929231	0.225130080727
10	2727	162.28620880055	0.244193137999
10	2745	163.046913956728	0.109785408801
10	2783	165.453042400211	0.676093981903
10	2785	165.522505025494	0.069462625283
10	2787	165.725792807115	0.203287781621
10	2837	167.861773962858	0.081940906859
10	2851	168.890413527123	0.158226240158
10	2855	169.271662542429	0.381249015306
10	2857	169.388440971121	0.116778428692
10	2919	172.947499845416	0.210412318304
10	2921	173.018650548559	0.071150703143
10	3651	219.298328390612	0.027013662751
10	3763	225.807937242698	0.105912909335
10	3771	225.97934028437	0.171403041672
10	3775	226.094103922523	0.114763638153
10	3793	227.028767491205	0.127221818076
10	3795	227.219373819594	0.190606328389
10	3807	227.647137159168	0.238619966751
10	3809	227.792368695242	0.145231536074
10	3829	228.619132957026	0.029402550968
10	3831	228.757706288024	0.138573330998
10	3845	229.86384178153	0.126790951954
10	3847	230.106955687177	0.243113905647
10	3871	231.774653595726	0.171376411516
10	3887	232.423539526445	0.012280709204
10	3895	232.726006025561	0.302466499116
10	3897	232.735851483189	0.009845457628
10	3899	232.830013829791	0.094162346602
10	3901	232.879198856546	0.049185026755
10	3907	233.223484739552	0.344285883006
10	4013	239.940844773317	0.001082749831
10	4021	240.357582559245	0.416737785928
10	4031	241.673842091349	1.316259532104
10	4039	242.345955051382	0.672112960033
10	4041	242.430124274148	149.85348046311
10	4045	242.471044986552	0.040920712404
10	4065	243.916214675561	149.82233210186
10	4073	244.255958328288	0.211257596289
10	4081	244.646475137475	0.390516809187
10	4085	244.710786670327	149.42530410091
10	4165	248.975121887466	0.014679628112
10	4255	255.01925342324	0.069851118592
10	4263	255.365334795204	0.232115835193
10	4265	255.381503426265	0.016168631061
10	4267	255.406229885724	0.024726459459
10	4269	255.431439263427	0.025209377703
10	4337	259.40771017582	0.446607429423
10	4383	261.892805754692	0.057289308592
10	5117	306.433355754146	0.430556183767
10	5121	306.606835542306	0.17347978816
10	5293	316.614646289861	0.049917236904
10	5301	316.862775769446	0.204198065081
10	5397	322.759113116349	0.040927391829
10	5523	329.949657253152	0.220455179326
10	5553	331.760818590258	0.049915008944
10	5555	331.887389546733	0.126570956475
10	5557	331.90268720015	298.3663271267
10	5559	332.347832724795	0.445145524645
10	5565	332.848212189058	0.500379464263
10	5581	333.996272539203	0.203771404088
10	5589	334.390747864231	0.029046423242
10	5679	338.962345231173	0.518351126599
10	5685	339.270290005499	0.307944774326
10	5689	339.31711802123	0.046828015731
10	5695	339.561490380397	225.3998154584
10	5697	339.573653577903	0.012163197506
10	5725	341.003278936384	225.35425086241
10	5811	346.489910126829	229.80887193212
10	5815	346.660585754565	229.06118109899
10	5837	347.800740164142	0.292048808102
10	6017	358.795494148523	0.100855870573
10	6033	359.387903805346	0.035668432907
10	6037	359.488005117507	0.100101312161
10	6039	359.530155573759	0.042150456252
10	6053	361.103447601431	241.43813109981
10	6055	361.13058995265	0.027142351219
10	6059	361.201342235099	0.070752282449
10	6075	362.053406609888	242.11185006692
10	6433	387.462166279547	267.19205442048
10	6443	387.762675229015	0.300508949468
10	6605	397.502602144506	0.278110312395
10	6609	397.776650175681	0.274048031175
10	6629	399.062065407403	0.297254261722
10	6631	399.140753682855	0.078688275452
10	6639	399.618799800926	0.283414430176
10	6645	400.347004560229	0.294222701977
10	6649	400.488820821122	273.87658822693
10	6653	400.734188047572	0.24536722645
10	6755	406.855848871588	1.354296361162
10	6769	407.310207796772	0.097571867945
10	6813	409.416061685312	0.740234258634
10	6819	410.097634327079	0.681572641767
10	6821	410.165657162596	0.068022835517
10	6823	410.310733617078	0.145076454482
10	6825	410.35627788	0.045544262922
10	6885	415.569530897589	281.38428275616
10	6889	415.680453909161	0.110923011572
10	6895	415.890358086791	0.20990417763
10	6933	417.851664944482	0.493821547912
10	6951	418.887175351267	0.136191276614
10	7023	422.579793718144	0.000218447984
10	7029	422.801427376083	0.221633657939
10	7031	422.827692650154	0.026265274071
10	7041	423.405921210695	0.09703158355
10	7045	423.455087525955	0.04916631526
10	7157	430.098498107396	0.187049630907
10	7201	432.88629005558	0.077922438608
10	7243	434.567647951522	0.157970116837
10	7343	440.671747186645	0.520115656813
10	7525	452.056009141026	0.168961379761
10	7557	453.603787392209	0.388266299138
10	7561	453.879592560978	0.275805168769
10	7675	460.812286743206	0.051187977947
11	21	1.356021955706	1.356021955706

