version 2
run Ten_Classes-0-20191216-13:28:33-5524
attr configname Ten_Classes
attr datetime 20191216-13:28:33
attr experiment Ten_Classes
attr inifile omnetpp.ini
attr iterationvars ""
attr iterationvarsf ""
attr measurement ""
attr network Net
attr processid 5524
attr repetition 0
attr replication #0
attr resultdir results
attr runnumber 0
attr seedset 0
param **.n 10
param **.policy ask
param **.gen[0].interArrivalTime exponential(0.3s)
param **.gen[0].serviceTime exponential(0.9s)
param **.gen[1].interArrivalTime exponential(0.4s)
param **.gen[1].serviceTime exponential(0.3s)
param **.gen[2].interArrivalTime exponential(0.5s)
param **.gen[2].serviceTime exponential(0.4s)
param **.gen[3].interArrivalTime exponential(0.2s)
param **.gen[3].serviceTime exponential(0.1s)
param **.gen[4].interArrivalTime exponential(0.3s)
param **.gen[4].serviceTime exponential(0.9s)
param **.gen[5].interArrivalTime exponential(0.4s)
param **.gen[5].serviceTime exponential(0.3s)
param **.gen[6].interArrivalTime exponential(0.5s)
param **.gen[6].serviceTime exponential(0.4s)
param **.gen[7].interArrivalTime exponential(0.2s)
param **.gen[7].serviceTime exponential(0.1s)
param **.gen[8].interArrivalTime exponential(0.3s)
param **.gen[8].serviceTime exponential(0.9s)
param **.gen[9].interArrivalTime exponential(0.4s)
param **.gen[9].serviceTime exponential(0.3s)

vector 0 Net.sys qlen:vector ETV
attr interpolationmode sample-hold
attr title "queue length, vector"
vector 1 Net.sys queueingTime:vector ETV
attr interpolationmode none
attr title "queueing time at dequeue, vector"
attr unit s
vector 2 Net.sys "Class 1 QueueingTime:vector" ETV
attr interpolationmode none
attr title "queueing time per class, vector"
attr unit s
vector 3 Net.sys responseTime:vector ETV
attr interpolationmode none
attr title "response time at end of service, vector"
attr unit s
vector 4 Net.sys "Class 1 ResponseTime:vector" ETV
attr interpolationmode none
attr title "response time per class, vector"
attr unit s
vector 5 Net.sys "Class 1 ExtServiceTime:vector" ETV
attr interpolationmode none
attr title "extended service time per class, vector"
attr unit s
vector 6 Net.sink lifetime:vector ETV
attr interpolationmode none
attr title "lifetime of arrived msg, vector"
attr unit s
vector 7 Net.sink arrivedMsg:vector ETV
attr interpolationmode none
attr title "number of arrived msg, vector"
0	0	0	0
0	11	0	0
0	12	0	1
0	13	0	2
0	14	0	3
0	15	0	4
0	16	0	5
0	17	0	6
0	18	0	7
0	19	0	8
0	20	0	9
0	22	0.011676933819	10
0	24	0.095506842253	11
0	26	0.176579569569	12
0	28	0.194051265489	13
0	30	0.2597785393	14
0	32	0.269568116545	15
0	34	0.291671612419	16
0	36	0.293101927918	17
0	38	0.346119173884	18
0	40	0.375792810841	19
0	42	0.376365344617	20
0	44	0.424409737797	21
0	46	0.426015574077	22
0	48	0.429446053596	23
0	50	0.504707179153	24
0	52	0.582951869037	25
0	53	0.716287054109	24
0	56	0.74384168483	25
0	58	0.759752719598	26
0	60	0.770227736109	27
0	62	0.783971254023	28
0	64	0.793497784672	29
0	65	0.798331977621	28
0	68	0.803811584299	29
0	70	0.84464822755	30
0	72	0.896599425687	31
0	74	0.912310194429	32
0	76	0.917398971199	33
0	78	0.917862774771	34
0	80	0.969238439333	35
0	82	0.975772667942	36
0	84	0.982253566977	37
0	86	0.990664356564	38
0	88	0.993295354393	39
0	90	1.044025655617	40
0	92	1.052175548217	41
0	94	1.064937900772	42
0	96	1.070010567754	43
0	98	1.144980994161	44
0	100	1.180563273263	45
0	102	1.204398639686	46
0	104	1.213516963987	47
0	106	1.221351997704	48
0	108	1.237025260269	49
0	110	1.238152906521	50
0	112	1.27670472707	51
0	114	1.322342605609	52
0	116	1.410073242639	53
0	118	1.458371811221	54
0	120	1.485217107617	55
0	122	1.48827000974	56
0	124	1.617026210061	57
0	126	1.632754981946	58
0	128	1.639373662336	59
0	130	1.645736510742	60
0	132	1.691200672901	61
0	134	1.71525522793	62
0	135	1.717620664535	61
0	138	1.725550303777	62
0	140	1.760203263754	63
0	142	1.764302637283	64
0	144	1.812399024875	65
0	146	2.036361898026	66
0	148	2.05683321753	67
0	150	2.088640982949	68
0	152	2.140229355049	69
0	154	2.143191272883	70
0	156	2.160058056128	71
0	158	2.168134107386	72
0	160	2.168892818261	73
0	162	2.196036899137	74
0	163	2.2657948454	73
0	166	2.3126932063	74
0	168	2.323175338875	75
0	170	2.329662737713	76
0	172	2.373674420282	77
0	174	2.401285462933	78
0	176	2.443822463173	79
0	178	2.452261021999	80
0	180	2.499043642166	81
0	182	2.610391166386	82
0	184	2.67323739684	83
0	186	2.688429607768	84
0	188	2.71446075247	85
0	190	2.751079572495	86
0	192	2.752959722628	87
0	194	2.783542817053	88
0	196	2.812062877129	89
0	198	2.966933896814	90
0	200	3.059189213943	91
0	202	3.107507637781	92
0	203	3.118091854857	91
0	206	3.122425252828	92
0	208	3.158475703225	93
0	210	3.200255078725	94
0	212	3.21134925092	95
0	214	3.250821882434	96
0	216	3.253557231002	97
0	218	3.263591681217	98
0	220	3.268467117741	99
0	222	3.364447618575	100
0	224	3.375239133516	101
0	226	3.389695926296	102
0	228	3.435328749228	103
0	230	3.464274160565	104
0	232	3.490753342609	105
0	234	3.494123613121	106
0	236	3.515750760551	107
0	238	3.5506719996	108
0	240	3.55280875476	109
0	241	3.635171020924	108
0	244	3.712025503745	109
0	246	3.729305100341	110
0	247	3.769012063251	109
0	250	3.797159418304	110
0	252	3.806156549625	111
0	254	3.842035711313	112
0	256	3.844269290769	113
0	258	3.947454955267	114
0	260	4.0196079934	115
0	262	4.049610108798	116
0	264	4.072019441735	117
0	266	4.090123417761	118
0	268	4.10178081877	119
0	270	4.114677879684	120
0	272	4.200303348276	121
0	274	4.252202063785	122
0	276	4.26272492977	123
0	278	4.264910154834	124
0	280	4.275403244424	125
0	282	4.28073256386	126
0	284	4.292319133459	127
0	286	4.302202768051	128
0	288	4.318822083822	129
0	290	4.319501665691	130
0	292	4.332503451165	131
0	294	4.412175771922	132
0	296	4.423427537591	133
0	298	4.445656338421	134
0	300	4.469115625167	135
0	302	4.486584584362	136
0	304	4.487355488025	137
0	306	4.537216519411	138
0	308	4.539320771077	139
0	310	4.542968363779	140
0	312	4.560297138197	141
0	313	4.604642710462	140
0	316	4.607210949651	141
0	318	4.673272060562	142
0	320	4.686399675824	143
0	322	4.686989661742	144
0	324	4.694056258401	145
0	325	4.718392483245	144
0	328	4.730563978778	145
0	330	4.744199638316	146
0	332	4.795386231844	147
0	333	4.807177760821	146
0	336	4.81546768554	147
0	338	4.828973247187	148
0	340	4.834253268573	149
0	342	4.835730604297	150
0	344	4.860704988598	151
0	346	4.929185117579	152
0	348	4.939567628016	153
0	350	5.007387383099	154
0	352	5.014094489496	155
0	354	5.024162127041	156
0	356	5.030549996974	157
0	358	5.0325286699	158
0	359	5.034355754423	157
0	361	5.051797557636	156
0	364	5.119026213162	157
0	366	5.284871230226	158
0	368	5.309786940304	159
0	370	5.343104063682	160
0	372	5.378325247487	161
0	374	5.392582724839	162
0	376	5.422235866666	163
0	378	5.434580932848	164
0	380	5.458500351638	165
0	382	5.517102193635	166
0	384	5.553855436959	167
0	386	5.607472347394	168
0	388	5.6986949991	169
0	390	5.708515857404	170
0	392	5.709031580259	171
0	394	5.71045855332	172
0	396	5.739641966955	173
0	398	5.745192886079	174
0	400	5.746112301302	175
0	402	5.803748894811	176
0	403	5.811297182968	175
0	406	6.024047714057	176
0	408	6.080620915532	177
0	410	6.152246777386	178
0	412	6.166187927466	179
0	414	6.185643724737	180
0	416	6.188904220021	181
0	418	6.22772636132	182
0	420	6.252648290843	183
0	422	6.264931634986	184
0	424	6.29994421937	185
0	426	6.300593350984	186
0	428	6.317365928005	187
0	430	6.35423947982	188
0	432	6.429575814631	189
0	434	6.56823884046	190
0	436	6.684858157858	191
0	438	6.709103451987	192
0	440	6.743778869824	193
0	442	6.805129194967	194
0	444	6.814151643259	195
0	446	6.859176687975	196
0	448	6.88102912881	197
0	450	6.955966956364	198
0	452	7.069394235783	199
0	454	7.070530185234	200
0	456	7.100049391812	201
0	458	7.103578402585	202
0	460	7.134601136568	203
0	462	7.138616830485	204
0	464	7.14423585874	205
0	466	7.152119674121	206
0	468	7.187775776301	207
0	470	7.187797917059	208
0	472	7.253876141709	209
0	474	7.262007767196	210
0	476	7.282069965481	211
0	478	7.298793208755	212
0	480	7.337303234586	213
0	482	7.420602131297	214
0	484	7.449971853132	215
0	486	7.475544473328	216
0	488	7.48627832302	217
0	490	7.528163891945	218
0	492	7.53029106008	219
0	494	7.601504466486	220
0	496	7.623787260683	221
0	498	7.657928781199	222
0	500	7.673849653053	223
0	502	7.674492998781	224
0	504	7.731534718859	225
0	506	7.77280631758	226
0	508	7.795452821167	227
0	509	7.853067776391	226
0	512	7.911736871458	227
0	514	7.920123254831	228
0	516	7.984963077528	229
0	518	7.985611344027	230
0	520	8.023415365696	231
0	522	8.07373864114	232
0	524	8.098844777665	233
0	526	8.102421552212	234
0	528	8.138476412128	235
0	530	8.147822749512	236
0	532	8.165144536783	237
0	534	8.171329795095	238
0	536	8.190542507748	239
0	538	8.229409579095	240
0	540	8.248775021322	241
0	542	8.253853321201	242
0	544	8.324643134905	243
0	546	8.327488816152	244
0	548	8.343318232363	245
0	550	8.351311147581	246
0	551	8.368283172677	245
0	554	8.403907620308	246
0	556	8.416930193265	247
0	558	8.421351155855	248
0	560	8.425064365606	249
0	562	8.446198397979	250
0	564	8.47529255437	251
0	566	8.478580118301	252
0	568	8.482792798068	253
0	570	8.558756996335	254
0	572	8.579158397711	255
0	574	8.663769961167	256
0	576	8.690586691338	257
0	578	8.764511438002	258
0	580	8.807844002316	259
0	582	8.839999696378	260
0	584	8.841916038122	261
0	586	8.888960733542	262
0	588	8.906183288921	263
0	590	8.911666450349	264
0	592	8.943553517748	265
0	594	8.946695224588	266
0	596	9.011524089566	267
0	598	9.022129230869	268
0	600	9.043340296995	269
0	602	9.141060207398	270
0	604	9.256383719273	271
0	606	9.277392617092	272
0	608	9.399335474133	273
0	610	9.400958002661	274
0	612	9.456796834361	275
0	614	9.470534535907	276
0	616	9.501983010643	277
0	618	9.526557161886	278
0	620	9.557527756484	279
0	622	9.583243803939	280
0	624	9.608061983222	281
0	626	9.615337002852	282
0	628	9.638164968376	283
0	630	9.652199512069	284
0	632	9.731643018938	285
0	634	9.747487779328	286
0	636	9.750038370902	287
0	638	9.754060697022	288
0	640	9.764385629547	289
0	642	9.764462957791	290
0	644	9.825919478047	291
0	646	9.867977893703	292
0	648	9.904619960272	293
0	650	9.90742927852	294
0	652	9.925547515091	295
0	654	9.943627650647	296
0	656	10.005033787827	297
0	658	10.059914015363	298
0	660	10.070844402652	299
0	662	10.149290143001	300
0	664	10.212175278805	301
0	666	10.274317256211	302
0	668	10.286189768884	303
0	670	10.372770457451	304
0	672	10.381485485404	305
0	674	10.393077274239	306
0	676	10.432237413818	307
0	678	10.440665860054	308
0	680	10.546434498487	309
0	682	10.572343115243	310
0	684	10.574526434451	311
0	686	10.630636006184	312
0	688	10.691211188658	313
0	690	10.721059753598	314
0	692	10.730466225365	315
0	694	10.736030714922	316
0	696	10.75582476584	317
0	698	10.772165612555	318
0	700	10.784435827405	319
0	702	10.801381836452	320
0	704	10.804845285406	321
0	705	10.817496602999	320
0	708	10.844137662585	321
0	710	10.858621484608	322
0	712	10.860568566476	323
0	714	10.864734001337	324
0	716	10.92203520989	325
0	718	10.944068645052	326
0	720	10.982165185495	327
0	722	11.071802682603	328
0	724	11.205088683477	329
0	726	11.206792877334	330
0	728	11.258858084687	331
0	730	11.29528822009	332
0	732	11.305785364364	333
0	734	11.344044573544	334
0	736	11.348171357668	335
0	738	11.357313432397	336
0	740	11.395268321424	337
0	742	11.447526869536	338
0	744	11.473026271777	339
0	746	11.484522579231	340
0	748	11.494112545187	341
0	750	11.52621985038	342
0	752	11.526950835317	343
0	754	11.562990395637	344
0	756	11.5898246571	345
0	758	11.59663032195	346
0	760	11.612329816771	347
0	762	11.632283806349	348
0	764	11.635349310873	349
0	766	11.63541281742	350
0	768	11.675592303572	351
0	770	11.682684092768	352
0	772	11.721803227687	353
0	774	11.724652064886	354
0	776	11.76376261299	355
0	778	11.7938158754	356
0	780	11.794459531033	357
0	782	11.799304295486	358
0	784	11.807425883351	359
0	786	11.81037021427	360
0	788	11.914095291266	361
0	790	11.920945096153	362
0	792	11.935799900872	363
0	794	11.993623221688	364
0	795	11.996303437225	363
0	798	12.054740072125	364
0	800	12.075250450726	365
0	802	12.090616337801	366
0	804	12.130952786988	367
0	806	12.158637055895	368
0	808	12.1824143752	369
0	810	12.209064089996	370
0	812	12.238428790877	371
0	814	12.238830547941	372
0	816	12.269652628938	373
0	818	12.279882110521	374
0	820	12.320268370267	375
0	822	12.336534745923	376
0	824	12.393583198302	377
0	826	12.48820422877	378
0	828	12.513718943529	379
0	830	12.517114749451	380
0	832	12.53964414304	381
0	833	12.540426533727	380
0	836	12.576935775199	381
0	838	12.631072704865	382
0	840	12.715998463988	383
0	842	12.743250300078	384
0	844	12.767333575315	385
0	846	12.784765220343	386
0	848	12.798434826308	387
0	850	12.804073476149	388
0	852	12.815712701353	389
0	854	12.821773520075	390
0	856	12.822174970179	391
0	858	12.840603341251	392
0	860	12.896930018574	393
0	862	12.969958974167	394
0	864	13.025100895837	395
0	866	13.035002091354	396
0	868	13.127270792545	397
0	870	13.128461300326	398
0	872	13.133364445139	399
0	874	13.165029989986	400
0	876	13.172110014756	401
0	878	13.187681951247	402
0	880	13.211732668352	403
0	882	13.225753138873	404
0	884	13.281466216702	405
0	886	13.284340385227	406
0	888	13.29536065232	407
0	890	13.317248535435	408
0	892	13.335971206191	409
0	894	13.337101655113	410
0	895	13.339178269362	409
0	898	13.422155237502	410
0	900	13.436765568933	411
0	902	13.448489789127	412
0	904	13.50085970643	413
0	906	13.510256010289	414
0	908	13.592253597472	415
0	910	13.601876156543	416
0	912	13.63765315168	417
0	914	13.666898087519	418
0	916	13.749318509533	419
0	918	13.808430322956	420
0	920	13.822699975039	421
0	922	13.902833030054	422
0	924	13.942413756057	423
0	926	13.986227548337	424
0	928	14.012722015056	425
0	930	14.017373701929	426
0	932	14.08332854945	427
0	934	14.131956393335	428
0	936	14.145103041617	429
0	938	14.169375168672	430
0	940	14.202277960613	431
0	942	14.228132038196	432
0	944	14.253893361887	433
0	946	14.283426581505	434
0	948	14.35753826424	435
0	950	14.388833470692	436
0	952	14.417903161913	437
0	954	14.515206989865	438
0	956	14.521833789492	439
0	958	14.558083208371	440
0	960	14.571202598497	441
0	962	14.599703187627	442
0	964	14.600386551068	443
0	966	14.62289901902	444
0	968	14.693462325955	445
0	970	14.764055380674	446
0	971	14.778925767018	445
0	974	14.796467195879	446
0	976	14.8180764765	447
0	978	14.851487318678	448
0	980	14.857272885621	449
0	982	14.8638934992	450
0	983	14.891455097949	449
0	985	14.969852822882	448
0	988	14.97212783665	449
0	990	14.98158677529	450
0	992	15.010933771893	451
0	994	15.012333206734	452
0	996	15.044473584404	453
0	998	15.054444822695	454
0	1000	15.078817181686	455
0	1002	15.084649083581	456
0	1004	15.098115573888	457
0	1006	15.107041443355	458
0	1008	15.118901854225	459
0	1010	15.135374426779	460
0	1012	15.157578839629	461
0	1014	15.220153435683	462
0	1016	15.24602393752	463
0	1018	15.259543402998	464
0	1020	15.288182389485	465
0	1022	15.318259113151	466
0	1024	15.326054830332	467
0	1026	15.345051549099	468
0	1028	15.362755336575	469
0	1030	15.372706654083	470
0	1032	15.377197557212	471
0	1034	15.390871965731	472
0	1036	15.395775130308	473
0	1038	15.452561237457	474
0	1040	15.459543339991	475
0	1042	15.464708948876	476
0	1044	15.469804829027	477
0	1046	15.550655960978	478
0	1048	15.564685146911	479
0	1050	15.61573930441	480
0	1052	15.621115428312	481
0	1054	15.700008509096	482
0	1056	15.817621096856	483
0	1058	15.899906145335	484
0	1060	15.902638291788	485
0	1062	15.903689417177	486
0	1064	15.963040319914	487
0	1066	15.992214081788	488
0	1068	16.103880182907	489
0	1070	16.227138228113	490
0	1072	16.351396999394	491
0	1074	16.366143504301	492
0	1076	16.373870751299	493
0	1078	16.461197276596	494
0	1080	16.46568229494	495
0	1082	16.500606077342	496
0	1084	16.505280302758	497
0	1086	16.506694459001	498
0	1088	16.554839691208	499
0	1090	16.600798207575	500
0	1092	16.659580644555	501
0	1094	16.729002908274	502
0	1096	16.730813800868	503
0	1098	16.735780442417	504
0	1100	16.843172048092	505
0	1101	16.852253738243	504
0	1104	16.873263567371	505
0	1106	16.882418866495	506
0	1108	16.899098980187	507
0	1110	16.90320226972	508
0	1112	16.945167027705	509
0	1114	16.946876631434	510
0	1116	16.949137169744	511
0	1118	17.00995267487	512
0	1120	17.022407235442	513
0	1122	17.026425875753	514
0	1124	17.030895129556	515
0	1126	17.037299452536	516
0	1128	17.043962706629	517
0	1130	17.121238166531	518
0	1132	17.136854154172	519
0	1134	17.152695969803	520
0	1136	17.159277112088	521
0	1137	17.164331711653	520
0	1140	17.283520140725	521
0	1142	17.288473177378	522
0	1144	17.303251889304	523
0	1146	17.40467490847	524
0	1148	17.41368426972	525
0	1150	17.418765224462	526
0	1152	17.428450175302	527
0	1154	17.613089348874	528
0	1156	17.613839967027	529
0	1158	17.640755399189	530
0	1160	17.649894307928	531
0	1162	17.71045057188	532
0	1164	17.819392386854	533
0	1166	17.833754405964	534
0	1168	17.83531002107	535
0	1170	17.870565215402	536
0	1172	17.96942604623	537
0	1174	18.029744573262	538
0	1176	18.061140195535	539
0	1178	18.073071615851	540
0	1180	18.14433481985	541
0	1182	18.16847116604	542
0	1184	18.194246895248	543
0	1186	18.206699255032	544
0	1188	18.210404671923	545
0	1190	18.223582842161	546
0	1192	18.255549989231	547
0	1194	18.260605683613	548
0	1196	18.278055978507	549
0	1198	18.334670465676	550
0	1200	18.344417819446	551
0	1202	18.374758968182	552
0	1204	18.375919821441	553
0	1206	18.422569999952	554
0	1208	18.426720702001	555
0	1210	18.456802335845	556
0	1212	18.471656358124	557
0	1214	18.476943167667	558
0	1216	18.500135650397	559
0	1218	18.519871156977	560
0	1220	18.589801511719	561
0	1222	18.594331616898	562
0	1224	18.635085511064	563
0	1226	18.673390804549	564
0	1227	18.718301753421	563
0	1230	18.765162451059	564
0	1232	18.774566846336	565
0	1234	18.802135765719	566
0	1235	18.810973280768	565
0	1238	18.826298065722	566
0	1240	18.831492725476	567
0	1242	18.843676422961	568
0	1244	18.853787527478	569
0	1246	18.854718834521	570
0	1248	18.92097525937	571
0	1250	18.925111350607	572
0	1252	18.927712917011	573
0	1254	19.002769241566	574
0	1256	19.0113575834	575
0	1258	19.031007907932	576
0	1260	19.080743360031	577
0	1262	19.098087625432	578
0	1264	19.127590045983	579
0	1266	19.130413710468	580
0	1268	19.201618821183	581
0	1270	19.203096745354	582
0	1272	19.209081379357	583
0	1273	19.281644169058	582
0	1276	19.282451082464	583
0	1278	19.291712240647	584
0	1280	19.330926192134	585
0	1282	19.373107333309	586
0	1284	19.43886747615	587
0	1286	19.48749171464	588
0	1288	19.504429170143	589
0	1290	19.510606665421	590
0	1292	19.517814353172	591
0	1294	19.533129872281	592
0	1296	19.55145683344	593
0	1298	19.6006780091	594
0	1300	19.613696175422	595
0	1302	19.72979663845	596
0	1303	19.772736112349	595
0	1306	19.822855475429	596
0	1308	19.836669546236	597
0	1310	19.866900472001	598
0	1312	19.910068112312	599
0	1314	19.915083779109	600
0	1316	19.949332096753	601
0	1318	19.99932079814	602
0	1320	20.005899012347	603
0	1322	20.021746735784	604
0	1324	20.037175848865	605
0	1326	20.050188577316	606
0	1328	20.071933669459	607
0	1330	20.109508107698	608
0	1332	20.112333236831	609
0	1334	20.155628933416	610
0	1336	20.227473293795	611
0	1338	20.242299977395	612
0	1340	20.25848106432	613
0	1342	20.30823243695	614
0	1344	20.375024876258	615
0	1346	20.465669056777	616
0	1348	20.513202230998	617
0	1350	20.529060844543	618
0	1352	20.530539996512	619
0	1354	20.612886638833	620
0	1356	20.616475193767	621
0	1358	20.654301888367	622
0	1360	20.684702328486	623
0	1362	20.706871548912	624
0	1364	20.727181303028	625
0	1366	20.802831455788	626
0	1368	20.830535620777	627
0	1369	20.84328273855	626
0	1372	20.856609111504	627
0	1373	20.9153537089	626
0	1376	20.92540675253	627
0	1378	20.925691933266	628
0	1380	21.040476208246	629
0	1382	21.075430484964	630
0	1384	21.107024810725	631
0	1386	21.112975280782	632
0	1388	21.119162197423	633
0	1390	21.121442730448	634
0	1392	21.201909658429	635
0	1394	21.203307313972	636
0	1396	21.217617162482	637
0	1398	21.220111948481	638
0	1400	21.256191953903	639
0	1402	21.256625273113	640
0	1404	21.261069003517	641
0	1406	21.280727106094	642
0	1408	21.303052378028	643
0	1410	21.354990609943	644
0	1412	21.373193367809	645
0	1414	21.377407201114	646
0	1416	21.420123844825	647
0	1418	21.448308679426	648
0	1420	21.534081017067	649
0	1421	21.557399563421	648
0	1424	21.566235027052	649
0	1426	21.597587849708	650
0	1428	21.610183360494	651
0	1430	21.632256365863	652
0	1432	21.707427788749	653
0	1434	21.734308195935	654
0	1436	21.752125387433	655
0	1438	21.80057732938	656
0	1440	21.809602168041	657
0	1442	21.822501200241	658
0	1444	21.845651778244	659
0	1446	21.934484083917	660
0	1448	21.93484657448	661
0	1450	21.971255361483	662
0	1452	21.973040536793	663
0	1454	22.022469222083	664
0	1456	22.132173464319	665
0	1458	22.164970413781	666
0	1459	22.248827571102	665
0	1462	22.289510882599	666
0	1464	22.307715135136	667
0	1465	22.372985479838	666
0	1468	22.395540217773	667
0	1470	22.408130809321	668
0	1472	22.450401215796	669
0	1474	22.469847230351	670
0	1476	22.55503807632	671
0	1478	22.558529234843	672
0	1480	22.566146527719	673
0	1482	22.568633683563	674
0	1484	22.584033455108	675
0	1486	22.606741485776	676
0	1488	22.612892283552	677
0	1490	22.629897447899	678
0	1492	22.634408412047	679
0	1494	22.681590534036	680
0	1496	22.698986641297	681
0	1498	22.765276591786	682
0	1500	22.77973722272	683
0	1502	22.817655716156	684
0	1504	22.857054645331	685
0	1506	22.886259662868	686
0	1508	22.891091385008	687
0	1510	22.897302411722	688
0	1512	22.919416456517	689
0	1513	22.922420040336	688
0	1516	22.961293989285	689
0	1518	22.984713411739	690
0	1520	22.989400456759	691
0	1522	23.001496198778	692
0	1524	23.066889400592	693
0	1526	23.087129076643	694
0	1528	23.091857187403	695
0	1530	23.105424637949	696
0	1532	23.139682061171	697
0	1534	23.20967967242	698
0	1536	23.227601110507	699
0	1538	23.270036742004	700
0	1540	23.335304929024	701
0	1542	23.337173373645	702
0	1544	23.356298441832	703
0	1546	23.364306528958	704
0	1548	23.367947151614	705
0	1550	23.369861408992	706
0	1552	23.43382550491	707
0	1554	23.447558138946	708
0	1556	23.515334363594	709
0	1558	23.516706765264	710
0	1560	23.545965096654	711
0	1562	23.5673209971	712
0	1564	23.59128661894	713
0	1566	23.623968428101	714
0	1568	23.729263720003	715
0	1570	23.774879081271	716
0	1572	23.777868289855	717
0	1574	23.783192830096	718
0	1576	23.885192706449	719
0	1578	23.929164947383	720
0	1580	23.966489865183	721
0	1582	23.979871768834	722
0	1584	23.983313210785	723
0	1586	23.998066324931	724
0	1588	24.009082408526	725
0	1590	24.022753010865	726
0	1592	24.20188445896	727
0	1594	24.216160725124	728
0	1596	24.313403844303	729
0	1598	24.317912384709	730
0	1600	24.320057155806	731
0	1602	24.383198247286	732
0	1604	24.435521292032	733
0	1606	24.436904971032	734
0	1608	24.437165487228	735
0	1610	24.441262946614	736
0	1612	24.450364364473	737
0	1614	24.546689300319	738
0	1616	24.567883887255	739
0	1618	24.572640651584	740
0	1620	24.590409870133	741
0	1622	24.605178773009	742
0	1623	24.624076279324	741
0	1626	24.648318741264	742
0	1628	24.694343894895	743
0	1629	24.71851575192	742
0	1632	24.764987110713	743
0	1634	24.780778531132	744
0	1636	24.847688971321	745
0	1638	24.854210990159	746
0	1640	24.887116016348	747
0	1642	24.919259505787	748
0	1644	24.937764002574	749
0	1646	24.979701089004	750
0	1647	24.979761825531	749
0	1650	24.991577109632	750
0	1652	25.002750937323	751
0	1654	25.015515132078	752
0	1656	25.064826119766	753
0	1658	25.159479710327	754
0	1659	25.204717560516	753
0	1662	25.211683798528	754
0	1664	25.234512996073	755
0	1666	25.259738334815	756
0	1668	25.338356148684	757
0	1670	25.339428412018	758
0	1672	25.394865086676	759
0	1674	25.406250644007	760
0	1676	25.507932509091	761
0	1678	25.517958344112	762
0	1680	25.518472926229	763
0	1682	25.520956881891	764
0	1684	25.534832846317	765
0	1686	25.542980710435	766
0	1688	25.660457633251	767
0	1690	25.678385538472	768
0	1692	25.730972811503	769
0	1693	25.811266660313	768
0	1696	25.814565097404	769
0	1698	25.814931093601	770
0	1700	25.860795026201	771
0	1702	25.95499274684	772
0	1704	25.993519041328	773
0	1706	26.006004973009	774
0	1708	26.023344917079	775
0	1710	26.026875760663	776
0	1712	26.029080731286	777
0	1714	26.043038030609	778
0	1716	26.057294406603	779
0	1718	26.066361924118	780
0	1720	26.085653485803	781
0	1722	26.104602473909	782
0	1724	26.132541278553	783
0	1726	26.13469294322	784
0	1728	26.138122809752	785
0	1730	26.141397262635	786
0	1732	26.152522819725	787
0	1734	26.159874766386	788
0	1736	26.191792617011	789
0	1738	26.196088419728	790
0	1740	26.243108162723	791
0	1742	26.266600218396	792
0	1744	26.279840290179	793
0	1745	26.307888569787	792
0	1748	26.407087927531	793
0	1750	26.410490385186	794
0	1752	26.411826447917	795
0	1754	26.415709178179	796
0	1756	26.429086597209	797
0	1758	26.432398781691	798
0	1760	26.435438069059	799
0	1762	26.448560290948	800
0	1764	26.575477072173	801
0	1766	26.580695446165	802
0	1768	26.593185070312	803
0	1770	26.632867962453	804
0	1772	26.633056054266	805
0	1774	26.647493462107	806
0	1776	26.66530118963	807
0	1778	26.692588607458	808
0	1780	26.713784890746	809
0	1782	26.730603978043	810
0	1784	26.774874928425	811
0	1785	26.790197485593	810
0	1788	26.802171528521	811
0	1790	26.830028048763	812
0	1791	26.832586829543	811
0	1794	26.836247000258	812
0	1796	26.84317994077	813
0	1798	26.899479170737	814
0	1800	26.90424822854	815
0	1801	27.071821723663	814
0	1804	27.118331574516	815
0	1806	27.132918848658	816
0	1808	27.159314232423	817
0	1810	27.175751354576	818
0	1812	27.178132832683	819
0	1814	27.186493163956	820
0	1816	27.208960100086	821
0	1818	27.241383691098	822
0	1820	27.272202680758	823
0	1822	27.276105375905	824
0	1824	27.320986816611	825
0	1826	27.338574172023	826
0	1828	27.389213909927	827
0	1830	27.458494965876	828
0	1832	27.474734138322	829
0	1834	27.505655976281	830
0	1836	27.524129351222	831
0	1838	27.567173297521	832
0	1840	27.569778675862	833
0	1842	27.618652825442	834
0	1844	27.624618041675	835
0	1846	27.631739102774	836
0	1848	27.641160270272	837
0	1850	27.651468642026	838
0	1852	27.683243650919	839
0	1854	27.740299191717	840
0	1856	27.767051249684	841
0	1858	27.777562795009	842
0	1860	27.795752132485	843
0	1862	27.823460223272	844
0	1864	27.828718973898	845
0	1866	27.945785972831	846
0	1868	27.998833408001	847
0	1870	28.003233992353	848
0	1872	28.008091309185	849
0	1874	28.121278711443	850
0	1876	28.126109897083	851
0	1878	28.145490436366	852
0	1880	28.161675642021	853
0	1882	28.174065984815	854
0	1884	28.177972266458	855
0	1886	28.203806142752	856
0	1887	28.252588496639	855
0	1890	28.266052617967	856
0	1892	28.289938184965	857
0	1894	28.343933131367	858
0	1896	28.389531972963	859
0	1898	28.456060467838	860
0	1900	28.476657592269	861
0	1902	28.497616767743	862
0	1904	28.505038244641	863
0	1906	28.521097475562	864
0	1908	28.56091659326	865
0	1910	28.596858805109	866
0	1912	28.720369974412	867
0	1914	28.750222626818	868
0	1916	28.786798086035	869
0	1918	28.857944928709	870
0	1920	28.872701875257	871
0	1922	28.882204218089	872
0	1924	28.908386287238	873
0	1926	28.982193800591	874
0	1928	28.991954669831	875
0	1930	29.04535158411	876
0	1932	29.081712962266	877
0	1934	29.119403205709	878
0	1936	29.129908423781	879
0	1938	29.151888978819	880
0	1940	29.209445097694	881
0	1942	29.240908859201	882
0	1944	29.323550075079	883
0	1946	29.342499664054	884
0	1948	29.352811580158	885
0	1950	29.414370143348	886
0	1952	29.45428582134	887
0	1954	29.461540987764	888
0	1956	29.472525596206	889
0	1958	29.612869035434	890
0	1960	29.618589683824	891
0	1962	29.648224694306	892
0	1964	29.661859018584	893
0	1966	29.705480393203	894
0	1968	29.759409619655	895
0	1970	29.827972472444	896
0	1972	29.861804265934	897
0	1974	29.879354988037	898
0	1976	29.895522998491	899
0	1978	29.975198651337	900
0	1980	29.981559391435	901
0	1982	29.989978550826	902
0	1984	30.018311511438	903
0	1986	30.139465195989	904
0	1988	30.15818026956	905
0	1989	30.173820651726	904
0	1992	30.186744667839	905
0	1994	30.254575810607	906
0	1996	30.261827808298	907
0	1998	30.263558982178	908
0	2000	30.26704650015	909
0	2002	30.403056876756	910
0	2003	30.418143621512	909
0	2006	30.449517949586	910
0	2008	30.504973214358	911
0	2010	30.557650151706	912
0	2012	30.614167391076	913
0	2014	30.624475068979	914
0	2016	30.65297492564	915
0	2018	30.668221825015	916
0	2020	30.674719208717	917
0	2022	30.785368603758	918
0	2024	30.803515800989	919
0	2026	30.814331830655	920
0	2028	30.819493073545	921
0	2030	30.842023424804	922
0	2031	30.852461315157	921
0	2034	30.940622042105	922
0	2036	30.949472293807	923
0	2038	31.020918606974	924
0	2040	31.03077080732	925
0	2042	31.113708351454	926
0	2044	31.14821188158	927
0	2046	31.150526689297	928
0	2048	31.250915724889	929
0	2050	31.267320871952	930
0	2052	31.274487992976	931
0	2054	31.356343686179	932
0	2056	31.40230984983	933
0	2058	31.406202052203	934
0	2060	31.444693543781	935
0	2062	31.460122137925	936
0	2064	31.464840369223	937
0	2066	31.474508676861	938
0	2068	31.564058331813	939
0	2070	31.573421216608	940
0	2072	31.638860516274	941
0	2074	31.639239808259	942
0	2076	31.743343459298	943
0	2078	31.744608044009	944
0	2080	31.745679713867	945
0	2082	31.753117655373	946
0	2084	31.762572155382	947
0	2086	31.763488388568	948
0	2088	31.800099565301	949
0	2090	31.801200455198	950
0	2092	31.81256820094	951
0	2094	31.814952073498	952
0	2096	31.942598375298	953
0	2098	31.946488833269	954
0	2100	31.973385583782	955
0	2102	31.997209495362	956
0	2103	32.065165256479	955
0	2106	32.078563841322	956
0	2108	32.109868077725	957
0	2110	32.124197979681	958
0	2112	32.12892553956	959
0	2114	32.142875391032	960
0	2116	32.148826281063	961
0	2118	32.168904617561	962
0	2120	32.199364356447	963
0	2122	32.209234905955	964
0	2124	32.233961145089	965
0	2126	32.241010130802	966
0	2128	32.24382852603	967
0	2130	32.258205101158	968
0	2132	32.271422186495	969
0	2134	32.334623342426	970
0	2136	32.401741570846	971
0	2138	32.413571611408	972
0	2140	32.578023467649	973
0	2142	32.603809807985	974
0	2144	32.604741747862	975
0	2146	32.63350401882	976
0	2148	32.681774393609	977
0	2150	32.720680409225	978
0	2152	32.775500911546	979
0	2154	32.822463610915	980
0	2156	32.863793123978	981
0	2158	32.907733192504	982
0	2160	32.94429806367	983
0	2162	32.954250951285	984
0	2164	32.959405355852	985
0	2166	32.993178123623	986
0	2168	33.001577759372	987
0	2170	33.015066397518	988
0	2172	33.017265221486	989
0	2174	33.041915451949	990
0	2176	33.053377434201	991
0	2178	33.075884674615	992
0	2180	33.136908696439	993
0	2182	33.168455897592	994
0	2184	33.171627550944	995
0	2186	33.172651688229	996
0	2187	33.180893529034	995
0	2189	33.183329716155	994
0	2192	33.247395857436	995
0	2194	33.257471477315	996
0	2196	33.265747872641	997
0	2198	33.291906984832	998
0	2200	33.350100369086	999
0	2202	33.367919446792	1000
0	2204	33.372181839875	1001
0	2206	33.373504274094	1002
0	2208	33.384350709977	1003
0	2210	33.392746994457	1004
0	2212	33.393175387011	1005
0	2214	33.4379635791	1006
0	2216	33.459606636134	1007
0	2218	33.525038104023	1008
0	2220	33.556589964296	1009
0	2222	33.573409482672	1010
0	2224	33.587113610384	1011
0	2226	33.595074561964	1012
0	2228	33.651537003519	1013
0	2230	33.77728942867	1014
0	2232	33.853325425265	1015
0	2234	33.857486951698	1016
0	2236	33.884677211391	1017
0	2238	33.889543433064	1018
0	2240	33.89112565265	1019
0	2242	33.894042032173	1020
0	2244	33.900327815355	1021
0	2246	33.908842099989	1022
0	2248	33.949471129441	1023
0	2250	33.968321704182	1024
0	2252	33.970377192643	1025
0	2254	33.99542326971	1026
0	2256	34.049713916846	1027
0	2257	34.120989734494	1026
0	2260	34.122620641845	1027
0	2262	34.126434751552	1028
0	2264	34.190707028094	1029
0	2266	34.280887542644	1030
0	2268	34.299213344665	1031
0	2270	34.312853663946	1032
0	2272	34.327898128712	1033
0	2274	34.350042283829	1034
0	2276	34.380794645549	1035
0	2278	34.410899759978	1036
0	2280	34.411345018162	1037
0	2282	34.418873257003	1038
0	2284	34.45324072796	1039
0	2286	34.515952280943	1040
0	2288	34.550307905983	1041
0	2290	34.556271735957	1042
0	2292	34.563116609597	1043
0	2294	34.580463346901	1044
0	2296	34.608953482145	1045
0	2298	34.63963178441	1046
0	2300	34.762401969743	1047
0	2302	34.787473742274	1048
0	2304	34.857543128452	1049
0	2306	34.875582898306	1050
0	2308	34.879041135908	1051
0	2310	34.950480753134	1052
0	2312	34.98139641876	1053
0	2314	34.995721943602	1054
0	2316	35.080726531336	1055
0	2318	35.205030098913	1056
0	2320	35.218109870227	1057
0	2322	35.262312320504	1058
0	2324	35.375432394396	1059
0	2326	35.395041855551	1060
0	2328	35.441853264809	1061
0	2330	35.446153226526	1062
0	2332	35.524735130988	1063
0	2334	35.535966160051	1064
0	2336	35.547570846283	1065
0	2338	35.575772292161	1066
0	2340	35.599712643906	1067
0	2341	35.633243894567	1066
0	2344	35.641502789494	1067
0	2346	35.668938194999	1068
0	2347	35.718999929152	1067
0	2350	35.736831078039	1068
0	2352	35.751595252859	1069
0	2354	35.788187732152	1070
0	2356	35.827170799232	1071
0	2358	35.836016973168	1072
0	2360	35.842740440359	1073
0	2362	35.856074524495	1074
0	2364	35.877993536986	1075
0	2366	35.971413448841	1076
0	2368	35.984942671223	1077
0	2370	36.061850748204	1078
0	2372	36.154183133564	1079
0	2374	36.165112785833	1080
0	2376	36.178575173932	1081
0	2378	36.189914396524	1082
0	2380	36.243937481558	1083
0	2382	36.249263753682	1084
0	2384	36.274557120916	1085
0	2386	36.312315961017	1086
0	2388	36.326589483141	1087
0	2390	36.368244987215	1088
0	2392	36.379048531319	1089
0	2394	36.401349623415	1090
0	2396	36.461163789929	1091
0	2398	36.480991011193	1092
0	2400	36.520109250175	1093
0	2402	36.520899702034	1094
0	2404	36.541264971896	1095
0	2406	36.553738668026	1096
0	2408	36.602633944303	1097
0	2410	36.620555260102	1098
0	2412	36.67749455593	1099
0	2414	36.690008009618	1100
0	2416	36.722182110079	1101
0	2418	36.738156606157	1102
0	2420	36.820323630298	1103
0	2422	36.837765182966	1104
0	2424	36.851892755734	1105
0	2426	36.854024441766	1106
0	2428	36.878917328657	1107
0	2430	36.884472441949	1108
0	2432	36.900030697682	1109
0	2434	36.909796597488	1110
0	2436	36.92433328814	1111
0	2438	36.934639790288	1112
0	2440	36.960593623227	1113
0	2442	36.997442135544	1114
0	2444	37.036001877129	1115
0	2446	37.081092766039	1116
0	2448	37.137770336074	1117
0	2450	37.140972633159	1118
0	2452	37.204444091984	1119
0	2454	37.207056052967	1120
0	2456	37.216536783788	1121
0	2458	37.273852306582	1122
0	2460	37.366983459607	1123
0	2462	37.396109180277	1124
0	2464	37.492313585538	1125
0	2466	37.492840867896	1126
0	2468	37.551100224226	1127
0	2470	37.616571097419	1128
0	2472	37.667415918331	1129
0	2473	37.681018331592	1128
0	2476	37.703448587549	1129
0	2478	37.74512895106	1130
0	2480	37.79278498424	1131
0	2482	37.811736184265	1132
0	2484	37.868638350616	1133
0	2486	37.880992299882	1134
0	2488	37.892977125825	1135
0	2490	37.935731288833	1136
0	2492	38.010164326212	1137
0	2494	38.068141597242	1138
0	2496	38.160322210205	1139
0	2498	38.160334324564	1140
0	2500	38.219590088558	1141
0	2502	38.261792299817	1142
0	2504	38.308026090688	1143
0	2506	38.345677710241	1144
0	2508	38.368710704343	1145
0	2510	38.371815439116	1146
0	2512	38.392158004947	1147
0	2514	38.440420021264	1148
0	2516	38.443081328896	1149
0	2518	38.502334884444	1150
0	2520	38.518143218328	1151
0	2522	38.520200424769	1152
0	2524	38.548238166814	1153
0	2526	38.625511252516	1154
0	2528	38.63733242169	1155
0	2530	38.644213454638	1156
0	2531	38.654910027628	1155
0	2534	38.65704698285	1156
0	2535	38.691289447516	1155
0	2538	38.703504703941	1156
0	2540	38.706330525909	1157
0	2542	38.734799515862	1158
0	2544	38.738736389714	1159
0	2546	38.757583899313	1160
0	2548	38.794828726337	1161
0	2550	38.833892231278	1162
0	2552	38.845414121435	1163
0	2554	38.866563998358	1164
0	2556	38.878784898586	1165
0	2558	38.879130793361	1166
0	2560	38.908937853838	1167
0	2562	39.021780825759	1168
0	2564	39.040623962715	1169
0	2566	39.083313598959	1170
0	2568	39.100536470668	1171
0	2570	39.101004032276	1172
0	2572	39.140330807517	1173
0	2574	39.142523273874	1174
0	2576	39.155633569606	1175
0	2578	39.249632602771	1176
0	2580	39.260786988076	1177
0	2582	39.2861078316	1178
0	2584	39.32454039977	1179
0	2586	39.342655531203	1180
0	2588	39.408515481598	1181
0	2590	39.448421022492	1182
0	2592	39.479990009392	1183
0	2594	39.519547336541	1184
0	2596	39.53656899187	1185
0	2598	39.582133121013	1186
0	2600	39.588305188838	1187
0	2602	39.623423054693	1188
0	2604	39.643743428818	1189
0	2606	39.651877909907	1190
0	2608	39.67790386409	1191
0	2610	39.700471415062	1192
0	2612	39.716009959993	1193
0	2614	39.727847599546	1194
0	2616	39.732558092783	1195
0	2618	39.744446729681	1196
0	2620	39.747097866884	1197
0	2622	39.779662340365	1198
0	2624	39.7897385261	1199
0	2626	39.790116154351	1200
0	2628	39.831352269897	1201
0	2630	39.958301656136	1202
0	2632	39.991065940737	1203
0	2634	40.053931309682	1204
0	2636	40.081962276628	1205
0	2638	40.140228753047	1206
0	2640	40.1626281238	1207
0	2642	40.320861472357	1208
0	2644	40.417504749679	1209
0	2646	40.424702230852	1210
0	2648	40.496763338734	1211
0	2650	40.508307394843	1212
0	2652	40.535803950305	1213
0	2654	40.621818006963	1214
0	2656	40.638327601158	1215
0	2658	40.647003792863	1216
0	2660	40.667608886501	1217
0	2662	40.728076285797	1218
0	2664	40.767262154585	1219
0	2666	40.831695630302	1220
0	2667	40.836050893388	1219
0	2670	40.837179903141	1220
0	2672	40.882004594886	1221
0	2674	40.96080716221	1222
0	2676	41.002369213756	1223
0	2678	41.012527816158	1224
0	2680	41.053904978628	1225
0	2682	41.069713114917	1226
0	2684	41.074634945692	1227
0	2686	41.101526717269	1228
0	2688	41.123188232783	1229
0	2690	41.133774384959	1230
0	2692	41.146162597297	1231
0	2694	41.147412221576	1232
0	2696	41.27438549891	1233
0	2698	41.361851851729	1234
0	2700	41.367263203145	1235
0	2702	41.374613656565	1236
0	2704	41.387493268027	1237
0	2706	41.402334166034	1238
0	2708	41.409505539785	1239
0	2710	41.483664190631	1240
0	2712	41.50862188355	1241
0	2714	41.568309289543	1242
0	2716	41.595495010158	1243
0	2718	41.705985803238	1244
0	2720	41.743459000492	1245
0	2722	41.777282507732	1246
0	2724	41.78423485042	1247
0	2725	41.84091760959	1246
0	2728	41.862648790766	1247
0	2730	41.867566748654	1248
0	2732	41.951835727313	1249
0	2734	41.954862284911	1250
0	2736	42.016434305582	1251
0	2738	42.025144433843	1252
0	2740	42.051909269645	1253
0	2742	42.060277354304	1254
0	2744	42.076666126257	1255
0	2746	42.17259448937	1256
0	2748	42.177601023213	1257
0	2750	42.178613484337	1258
0	2752	42.184507267038	1259
0	2754	42.244298044999	1260
0	2756	42.247450095672	1261
0	2758	42.258024558975	1262
0	2760	42.265953445358	1263
0	2762	42.289617740265	1264
0	2764	42.303893262608	1265
0	2766	42.347628054404	1266
0	2768	42.393636292669	1267
0	2770	42.398259451475	1268
0	2772	42.475444994498	1269
0	2773	42.491259623372	1268
0	2776	42.499242637202	1269
0	2778	42.504262090539	1270
0	2780	42.557099338204	1271
0	2782	42.564001435855	1272
0	2784	42.582590010768	1273
0	2786	42.599610346782	1274
0	2787	42.620160567705	1273
0	2790	42.63491151088	1274
0	2792	42.678929992863	1275
0	2794	42.716766426836	1276
0	2796	42.734978562616	1277
0	2798	42.743584451937	1278
0	2800	42.784681087731	1279
0	2802	42.821072213136	1280
0	2804	42.867488491221	1281
0	2806	42.872978810755	1282
0	2808	42.890565479816	1283
0	2810	42.891907650039	1284
0	2812	42.908520803383	1285
0	2814	42.915609112409	1286
0	2816	42.94067806046	1287
0	2818	42.999461834341	1288
0	2820	42.99960527792	1289
0	2822	43.002583529023	1290
0	2824	43.011065990525	1291
0	2826	43.064708946021	1292
0	2828	43.106756449836	1293
0	2830	43.249395620509	1294
0	2832	43.25590262846	1295
0	2834	43.262736249971	1296
0	2836	43.269686658939	1297
0	2838	43.29023935964	1298
0	2840	43.315236752653	1299
0	2842	43.324458876015	1300
0	2844	43.327223624314	1301
0	2846	43.368998019209	1302
0	2848	43.391524595977	1303
0	2849	43.424855867018	1302
0	2852	43.524983923753	1303
0	2854	43.530736463755	1304
0	2856	43.572559216558	1305
0	2858	43.586968066149	1306
0	2860	43.628514449566	1307
0	2862	43.650376683311	1308
0	2864	43.65080531039	1309
0	2866	43.688454925706	1310
0	2868	43.86780507269	1311
0	2870	43.903362687537	1312
0	2872	43.910352899012	1313
0	2874	43.932823541605	1314
0	2875	43.934372463544	1313
0	2878	43.994929094025	1314
0	2880	43.997675413021	1315
0	2881	44.036228462697	1314
0	2884	44.127792527939	1315
0	2886	44.128622858965	1316
0	2888	44.165873109343	1317
0	2890	44.173875553792	1318
0	2892	44.176761689878	1319
0	2894	44.236884796114	1320
0	2896	44.286350437182	1321
0	2898	44.311587192924	1322
0	2900	44.312771664449	1323
0	2902	44.319336121669	1324
0	2904	44.346057734605	1325
0	2906	44.384964577304	1326
0	2908	44.413570526001	1327
0	2910	44.426399484503	1328
0	2912	44.468871342321	1329
0	2913	44.495674109129	1328
0	2916	44.516036532935	1329
0	2918	44.536372888351	1330
0	2920	44.539912247966	1331
0	2921	44.549960330529	1330
0	2923	44.660759739954	1329
0	2926	44.670779532926	1330
0	2928	44.676133751599	1331
0	2930	44.710150985489	1332
0	2932	44.727049520565	1333
0	2934	44.741947948304	1334
0	2936	44.754445097073	1335
0	2938	44.759875292844	1336
0	2940	44.764392230579	1337
0	2942	44.783192362042	1338
0	2944	44.850380288095	1339
0	2946	44.854454372164	1340
0	2948	44.875016708768	1341
0	2950	44.885593191246	1342
0	2952	44.917855914679	1343
0	2954	44.944047386058	1344
0	2956	44.982434729098	1345
0	2958	45.026387520179	1346
0	2960	45.062098207697	1347
0	2962	45.080665039849	1348
0	2964	45.117259198102	1349
0	2966	45.119439527609	1350
0	2967	45.126209974318	1349
0	2970	45.127064508966	1350
0	2972	45.160541012546	1351
0	2974	45.222304562033	1352
0	2976	45.230955935579	1353
0	2978	45.237162254058	1354
0	2980	45.260147463588	1355
0	2982	45.278430183426	1356
0	2984	45.293714392957	1357
0	2986	45.443727396974	1358
0	2988	45.504428607591	1359
0	2990	45.557454123676	1360
0	2992	45.577654766566	1361
0	2993	45.58567129266	1360
0	2996	45.608411845607	1361
0	2998	45.659895641919	1362
0	3000	45.700797751492	1363
0	3002	45.709140773848	1364
0	3004	45.777128765163	1365
0	3006	45.942656801189	1366
0	3008	45.946914480094	1367
0	3010	45.950691905487	1368
0	3012	46.015039389273	1369
0	3014	46.03041161414	1370
0	3016	46.090602709087	1371
0	3018	46.122102916558	1372
0	3020	46.128198044461	1373
0	3022	46.187530892483	1374
0	3024	46.194343592432	1375
0	3026	46.244498665287	1376
0	3028	46.262360397421	1377
0	3030	46.317375720897	1378
0	3032	46.353641951202	1379
0	3034	46.358742472707	1380
0	3036	46.368910000957	1381
0	3038	46.374317795899	1382
0	3040	46.429175519195	1383
0	3042	46.442749405682	1384
0	3044	46.465492834789	1385
0	3046	46.474513370495	1386
0	3048	46.494299342866	1387
0	3050	46.546232176865	1388
0	3052	46.618833702729	1389
0	3054	46.62277145099	1390
0	3056	46.644149130367	1391
0	3058	46.668242443635	1392
0	3060	46.691270870647	1393
0	3062	46.694848421101	1394
0	3063	46.711525087253	1393
0	3066	46.711727015548	1394
0	3068	46.718917036198	1395
0	3070	46.733930494153	1396
0	3072	46.772747607556	1397
0	3074	46.824530555287	1398
0	3076	46.86323508125	1399
0	3078	46.877378992058	1400
0	3080	47.022920970378	1401
0	3082	47.044475547657	1402
0	3084	47.059586081665	1403
0	3086	47.110922742557	1404
0	3088	47.11530923535	1405
0	3090	47.122471433024	1406
0	3092	47.142873970044	1407
0	3094	47.172688258546	1408
0	3096	47.176024057196	1409
0	3098	47.214968194357	1410
0	3100	47.215073013154	1411
0	3102	47.251592992496	1412
0	3104	47.259566678199	1413
0	3106	47.30805829865	1414
0	3108	47.368768245884	1415
0	3110	47.386271631253	1416
0	3112	47.416113027385	1417
0	3114	47.478918571152	1418
0	3116	47.494613415648	1419
0	3118	47.495897662563	1420
0	3120	47.512820763092	1421
0	3122	47.580026298137	1422
0	3124	47.582518952408	1423
0	3126	47.588319283134	1424
0	3128	47.59438162685	1425
0	3129	47.665205536141	1424
0	3132	47.679710104624	1425
0	3134	47.698963223004	1426
0	3136	47.752699246101	1427
0	3138	47.768669419178	1428
0	3139	47.769868036231	1427
0	3141	47.796530313298	1426
0	3144	47.817248163173	1427
0	3146	47.838700477459	1428
0	3148	47.842533575352	1429
0	3150	47.883922962003	1430
0	3152	47.945540932022	1431
0	3154	47.983062543217	1432
0	3156	48.007443502444	1433
0	3158	48.014174240711	1434
0	3160	48.050653173026	1435
0	3162	48.177976277989	1436
0	3164	48.249707715763	1437
0	3166	48.332216145749	1438
0	3168	48.361106475315	1439
0	3170	48.377516182802	1440
0	3172	48.387164010039	1441
0	3174	48.387387371342	1442
0	3176	48.431192740236	1443
0	3177	48.485515487345	1442
0	3180	48.49888722668	1443
0	3182	48.529836298704	1444
0	3184	48.53291201547	1445
0	3186	48.55626749553	1446
0	3188	48.61727149736	1447
0	3190	48.618299480228	1448
0	3192	48.629316899874	1449
0	3194	48.646962284573	1450
0	3196	48.685218712029	1451
0	3197	48.685890454177	1450
0	3200	48.781297054579	1451
0	3202	48.807757827064	1452
0	3204	48.838139677134	1453
0	3206	48.908040453531	1454
0	3208	48.912075260646	1455
0	3210	48.914342982828	1456
0	3212	48.941634129189	1457
0	3214	49.015794179917	1458
0	3216	49.103991144061	1459
0	3217	49.110896327957	1458
0	3220	49.19888844329	1459
0	3222	49.252885824828	1460
0	3224	49.281737342303	1461
0	3226	49.366718391064	1462
0	3227	49.382991652201	1461
0	3230	49.405224614865	1462
0	3232	49.426283355872	1463
0	3234	49.49927176031	1464
0	3236	49.514985658644	1465
0	3238	49.532044911553	1466
0	3240	49.541076163894	1467
0	3242	49.54668874634	1468
0	3244	49.574961722334	1469
0	3246	49.599592333527	1470
0	3248	49.607398564571	1471
0	3250	49.609006795258	1472
0	3252	49.644988223873	1473
0	3254	49.716121735822	1474
0	3256	49.725066585493	1475
0	3258	49.743194597871	1476
0	3260	49.775673325151	1477
0	3262	49.790847693831	1478
0	3264	49.826234736942	1479
0	3266	49.831000161401	1480
0	3268	49.894753648714	1481
0	3270	49.897324738011	1482
0	3272	49.934328991443	1483
0	3274	49.955070653051	1484
0	3276	49.958519941659	1485
0	3277	49.999599722345	1484
0	3280	50.031393641834	1485
0	3282	50.041567068433	1486
0	3284	50.048641860234	1487
0	3286	50.05899900339	1488
0	3288	50.09558318881	1489
0	3290	50.146066623098	1490
0	3292	50.164417798005	1491
0	3294	50.169407258453	1492
0	3296	50.230747091986	1493
0	3297	50.291934846527	1492
0	3300	50.302660158136	1493
0	3302	50.37017162249	1494
0	3304	50.370710738813	1495
0	3306	50.401311428019	1496
0	3308	50.439441532055	1497
0	3310	50.448197427275	1498
0	3311	50.448687145523	1497
0	3313	50.452168186392	1496
0	3316	50.458721374414	1497
0	3318	50.46019484837	1498
0	3320	50.479290798976	1499
0	3322	50.493406788807	1500
0	3324	50.530388887261	1501
0	3326	50.579704946076	1502
0	3328	50.600382907015	1503
0	3330	50.60215296186	1504
0	3332	50.654084972674	1505
0	3334	50.655485317851	1506
0	3336	50.659987388743	1507
0	3338	50.710135385969	1508
0	3340	50.718024245982	1509
0	3342	50.731711490396	1510
0	3344	50.776953022175	1511
0	3346	50.854147542682	1512
0	3348	50.897245776473	1513
0	3350	50.901939175143	1514
0	3352	50.919610156257	1515
0	3354	50.939947472611	1516
0	3356	50.949282482874	1517
0	3358	50.958781319383	1518
0	3360	51.013859326053	1519
0	3362	51.015321297307	1520
0	3364	51.016967793481	1521
0	3366	51.022362594682	1522
0	3368	51.047956984477	1523
0	3370	51.061022507226	1524
0	3372	51.064528656383	1525
0	3374	51.076468822134	1526
0	3375	51.089850654288	1525
0	3378	51.194233051196	1526
0	3380	51.194246662916	1527
0	3382	51.217708161372	1528
0	3384	51.231369218601	1529
0	3386	51.279593500691	1530
0	3388	51.304775575519	1531
0	3390	51.343071221509	1532
0	3392	51.344806264194	1533
0	3394	51.404145740219	1534
0	3396	51.416442135232	1535
0	3398	51.425758966868	1536
0	3400	51.426747229805	1537
0	3402	51.432440393669	1538
0	3404	51.462396482995	1539
0	3406	51.491016969071	1540
0	3408	51.505024395009	1541
0	3410	51.51400337224	1542
0	3412	51.545512374095	1543
0	3414	51.577357779463	1544
0	3415	51.619090084797	1543
0	3418	51.628379352388	1544
0	3420	51.647886960525	1545
0	3422	51.793887929664	1546
0	3424	51.799444556399	1547
0	3426	51.81690443489	1548
0	3428	51.836958528036	1549
0	3429	51.838626787672	1548
0	3432	51.879531977198	1549
0	3433	51.909141608656	1548
0	3436	51.909821506838	1549
0	3438	51.92770150788	1550
0	3440	51.928585308206	1551
0	3442	51.960256553201	1552
0	3444	51.965205975874	1553
0	3446	51.99490788252	1554
0	3448	52.021323945174	1555
0	3450	52.054246191312	1556
0	3452	52.06493102933	1557
0	3454	52.084330249396	1558
0	3456	52.168939380119	1559
0	3458	52.170843225258	1560
0	3460	52.174659791384	1561
0	3462	52.197492047702	1562
0	3464	52.205886830216	1563
0	3466	52.29022351695	1564
0	3468	52.297202021252	1565
0	3470	52.393384250194	1566
0	3471	52.40666100881	1565
0	3474	52.41671514722	1566
0	3476	52.453358182226	1567
0	3478	52.497857454666	1568
0	3480	52.508811030555	1569
0	3481	52.661452654901	1568
0	3484	52.666741109366	1569
0	3486	52.713099067264	1570
0	3488	52.747974739676	1571
0	3490	52.796225863069	1572
0	3492	52.844889667785	1573
0	3494	52.863206459752	1574
0	3496	52.878348183781	1575
0	3498	52.926731152632	1576
0	3500	52.978555260631	1577
0	3502	53.028533627845	1578
0	3504	53.048843568172	1579
0	3506	53.201449419138	1580
0	3508	53.216225138314	1581
0	3510	53.247517501234	1582
0	3512	53.256803437098	1583
0	3514	53.360271525214	1584
0	3516	53.365752466048	1585
0	3518	53.410556765768	1586
0	3520	53.500037762777	1587
0	3522	53.545561256281	1588
0	3524	53.560162236882	1589
0	3526	53.640778035968	1590
0	3528	53.641994673946	1591
0	3530	53.655930915967	1592
0	3532	53.66855465655	1593
0	3534	53.67621952514	1594
0	3536	53.747588646782	1595
0	3538	53.775356385655	1596
0	3540	53.783793126472	1597
0	3542	53.784744889133	1598
0	3544	53.814536818627	1599
0	3546	53.818353929005	1600
0	3548	53.830583933085	1601
0	3550	53.873006382366	1602
0	3552	53.880972391825	1603
0	3554	53.895683244756	1604
0	3556	53.897459466763	1605
0	3558	53.897869022827	1606
0	3560	53.92384910631	1607
0	3562	53.980463454012	1608
0	3564	53.995252537355	1609
0	3566	54.007391889506	1610
0	3568	54.010136925718	1611
0	3570	54.044101845293	1612
0	3572	54.052153983661	1613
0	3574	54.060117138583	1614
0	3576	54.062030975847	1615
0	3578	54.158878224439	1616
0	3580	54.181870626201	1617
0	3582	54.217291083367	1618
0	3584	54.219334474956	1619
0	3586	54.248921159331	1620
0	3588	54.268096440273	1621
0	3590	54.27032762774	1622
0	3592	54.302116616141	1623
0	3594	54.336304760637	1624
0	3596	54.41038699217	1625
0	3598	54.489027873684	1626
0	3600	54.574984602836	1627
0	3602	54.599840530374	1628
0	3604	54.665008585816	1629
0	3606	54.683921657575	1630
0	3608	54.696115304599	1631
0	3610	54.706210035413	1632
0	3612	54.795428090657	1633
0	3614	54.805672674308	1634
0	3616	54.827239699382	1635
0	3618	54.828103221812	1636
0	3620	54.834097235311	1637
0	3622	54.835977763513	1638
0	3624	54.861049062777	1639
0	3626	54.864782577438	1640
0	3628	54.906061759617	1641
0	3630	54.920087713297	1642
0	3632	54.987732925674	1643
0	3634	55.002411592418	1644
0	3636	55.024752259812	1645
0	3638	55.058890930066	1646
0	3640	55.071122722918	1647
0	3642	55.145486047368	1648
0	3644	55.176803232539	1649
0	3646	55.220060502531	1650
0	3648	55.228228458496	1651
0	3650	55.255234605434	1652
0	3652	55.292838056061	1653
0	3654	55.293540862357	1654
0	3656	55.338195202901	1655
0	3658	55.342170727475	1656
0	3660	55.362097172873	1657
0	3662	55.400276446883	1658
0	3664	55.407021363675	1659
0	3666	55.407293224216	1660
0	3668	55.426381779212	1661
0	3670	55.486951903067	1662
0	3672	55.519268464855	1663
0	3674	55.586784812235	1664
0	3676	55.593438144368	1665
0	3678	55.616872876344	1666
0	3680	55.659045531262	1667
0	3682	55.663549170226	1668
0	3684	55.68640610942	1669
0	3686	55.70848227616	1670
0	3688	55.73707774734	1671
0	3690	55.766058177648	1672
0	3692	55.833372635276	1673
0	3694	55.841256772102	1674
0	3696	55.859976921068	1675
0	3698	55.90169935307	1676
0	3700	55.903731755035	1677
0	3702	55.910622096098	1678
0	3704	55.913834023763	1679
0	3706	55.955015224067	1680
0	3708	55.971059786934	1681
0	3710	55.972198629639	1682
0	3712	55.978273459629	1683
0	3713	56.013839591584	1682
0	3716	56.026103995675	1683
0	3718	56.033272294806	1684
0	3720	56.042161822858	1685
0	3722	56.045087513358	1686
0	3724	56.06114180988	1687
0	3726	56.124850042082	1688
0	3728	56.143502724941	1689
0	3730	56.167878250332	1690
0	3732	56.182087891704	1691
0	3734	56.237326205801	1692
0	3736	56.278343819838	1693
0	3738	56.278788811953	1694
0	3740	56.287219874513	1695
0	3742	56.308841472044	1696
0	3744	56.378447891517	1697
0	3746	56.396801299267	1698
0	3748	56.408959385163	1699
0	3750	56.453133712601	1700
0	3752	56.579011845188	1701
0	3754	56.609928183626	1702
0	3756	56.626927880855	1703
0	3758	56.66784167316	1704
0	3760	56.721513766802	1705
0	3762	56.769259042566	1706
0	3764	56.838091181249	1707
0	3766	56.894311295368	1708
0	3768	57.011071567386	1709
0	3770	57.063924975519	1710
0	3772	57.067813242602	1711
0	3774	57.080675642401	1712
0	3776	57.127834774583	1713
0	3778	57.198235447234	1714
0	3780	57.219481012599	1715
0	3782	57.230686050457	1716
0	3784	57.298556670298	1717
0	3786	57.40467179226	1718
0	3788	57.442198637436	1719
0	3790	57.494283930914	1720
0	3792	57.503344851831	1721
0	3793	57.505494660186	1720
0	3796	57.562193218286	1721
0	3798	57.565062744659	1722
0	3800	57.577273641586	1723
0	3802	57.625281041802	1724
0	3804	57.673470850474	1725
0	3806	57.759197158868	1726
0	3808	57.770533843	1727
0	3810	57.778353612779	1728
0	3812	57.824361321726	1729
0	3814	57.888675023862	1730
0	3816	57.907312820864	1731
0	3818	57.951977974806	1732
0	3820	58.00020512584	1733
0	3822	58.022178481143	1734
0	3824	58.075104067181	1735
0	3826	58.108731777587	1736
0	3828	58.126804546474	1737
0	3830	58.178688472686	1738
0	3832	58.229194122008	1739
0	3834	58.237365862389	1740
0	3836	58.260328620853	1741
0	3838	58.282797873797	1742
0	3840	58.358860285475	1743
0	3842	58.380675381783	1744
0	3844	58.433575837639	1745
0	3846	58.451247540904	1746
0	3848	58.451349352724	1747
0	3850	58.511674543649	1748
0	3852	58.537062934022	1749
0	3854	58.645611594832	1750
0	3856	58.662691207966	1751
0	3858	58.704121713605	1752
0	3860	58.773342529593	1753
0	3862	58.808355248648	1754
0	3864	58.810320375901	1755
0	3865	58.828074644468	1754
0	3868	58.839220073125	1755
0	3870	58.840971573756	1756
0	3872	58.844091979672	1757
0	3874	58.873937275928	1758
0	3876	58.892456390938	1759
0	3878	58.920722202043	1760
0	3880	58.941558326365	1761
0	3882	58.98126022692	1762
0	3884	58.992206150298	1763
0	3886	59.030875602529	1764
0	3888	59.127961811707	1765
0	3890	59.130832892126	1766
0	3892	59.167118973992	1767
0	3894	59.214144202476	1768
0	3896	59.237512813823	1769
0	3898	59.249784229045	1770
0	3900	59.270877997549	1771
0	3902	59.308255231904	1772
0	3904	59.382297173574	1773
0	3906	59.399495120678	1774
0	3908	59.432351467204	1775
0	3910	59.440391459533	1776
0	3912	59.443136541577	1777
0	3914	59.450726901988	1778
0	3916	59.459381543164	1779
0	3918	59.488298774192	1780
0	3920	59.517301951962	1781
0	3922	59.564248916318	1782
0	3924	59.585037345984	1783
0	3926	59.616888791404	1784
0	3928	59.672026926077	1785
0	3930	59.688859250007	1786
0	3931	59.702853398238	1785
0	3934	59.724581067777	1786
0	3936	59.790115790268	1787
0	3938	59.822107617263	1788
0	3940	59.838816299439	1789
0	3942	59.908591942914	1790
0	3943	59.913015733672	1789
0	3946	59.923109963483	1790
0	3948	59.931104922446	1791
0	3950	59.991744000024	1792
0	3951	60.023639943008	1791
0	3954	60.077701739172	1792
0	3956	60.087929457057	1793
0	3958	60.10124376344	1794
0	3960	60.222736651131	1795
0	3962	60.299413926288	1796
0	3964	60.304806430131	1797
0	3966	60.321196874922	1798
0	3968	60.325080064552	1799
0	3970	60.32624031285	1800
0	3972	60.327932219133	1801
0	3974	60.345041684126	1802
0	3976	60.36205264254	1803
0	3978	60.373453015522	1804
0	3980	60.377448252153	1805
0	3982	60.453146409021	1806
0	3984	60.478864749178	1807
0	3986	60.523931265992	1808
0	3988	60.552137478837	1809
0	3990	60.707612508299	1810
0	3992	60.72856795689	1811
0	3994	60.729802288062	1812
0	3996	60.75010052211	1813
0	3998	60.771278007269	1814
0	4000	60.80071498729	1815
0	4002	60.810912472113	1816
0	4004	60.821923249555	1817
0	4006	60.822882957435	1818
0	4008	60.833817873764	1819
0	4010	60.899895663892	1820
0	4012	60.93275861252	1821
0	4014	60.97945522928	1822
0	4016	60.981946737836	1823
0	4018	61.068497520779	1824
0	4020	61.136902373718	1825
0	4022	61.138526168887	1826
0	4024	61.19645879917	1827
0	4026	61.197241033037	1828
0	4028	61.24397344584	1829
0	4030	61.245822938903	1830
0	4032	61.257282345153	1831
0	4034	61.283861164243	1832
0	4036	61.317952932167	1833
0	4038	61.387963339978	1834
0	4040	61.441232453795	1835
0	4042	61.52433008009	1836
0	4043	61.553751479346	1835
0	4046	61.591723356679	1836
0	4048	61.602264781111	1837
0	4050	61.647225142477	1838
0	4052	61.679742349063	1839
0	4054	61.680136609565	1840
0	4056	61.702470452638	1841
0	4058	61.765235957197	1842
0	4060	61.797750789425	1843
0	4062	61.830988182034	1844
0	4064	61.863895162944	1845
0	4066	61.877228961836	1846
0	4068	61.882702860909	1847
0	4070	61.88378007328	1848
0	4072	61.926401577181	1849
0	4074	61.963041556579	1850
0	4076	61.996475218042	1851
0	4078	62.001514554465	1852
0	4080	62.022188827913	1853
0	4082	62.057649404401	1854
0	4084	62.065105201127	1855
0	4086	62.073977404872	1856
0	4088	62.096082510388	1857
0	4090	62.149462572892	1858
0	4092	62.159027891057	1859
0	4094	62.162139357889	1860
0	4096	62.185346451857	1861
0	4098	62.194898248229	1862
0	4100	62.247006214681	1863
0	4102	62.288620027471	1864
0	4104	62.311251335778	1865
0	4106	62.345811039396	1866
0	4108	62.423790946663	1867
0	4110	62.495324584134	1868
0	4112	62.515047190788	1869
0	4114	62.517709623476	1870
0	4116	62.554204020874	1871
0	4118	62.559692221803	1872
0	4120	62.582767526274	1873
0	4122	62.589153827446	1874
0	4124	62.601658583038	1875
0	4125	62.619969014935	1874
0	4128	62.732728325747	1875
0	4130	62.76241894078	1876
0	4132	62.823583759942	1877
0	4134	62.872677361986	1878
0	4136	62.933116004195	1879
0	4138	62.972219742563	1880
0	4140	62.977106063005	1881
0	4142	63.036332301315	1882
0	4144	63.05076758834	1883
0	4146	63.053166322408	1884
0	4148	63.071256938978	1885
0	4150	63.083104697703	1886
0	4152	63.095156222368	1887
0	4154	63.12383403049	1888
0	4156	63.158326250459	1889
0	4158	63.166315209984	1890
0	4160	63.320899089955	1891
0	4162	63.380261615317	1892
0	4164	63.43986008011	1893
0	4166	63.518910785441	1894
0	4168	63.57946112734	1895
0	4170	63.61636962932	1896
0	4172	63.623583340396	1897
0	4174	63.629299945443	1898
0	4176	63.670829998893	1899
0	4178	63.674405699595	1900
0	4180	63.682649639912	1901
0	4182	63.696819083112	1902
0	4184	63.731038007829	1903
0	4186	63.752837849904	1904
0	4188	63.764410616937	1905
0	4190	63.801528418506	1906
0	4192	63.822523266483	1907
0	4194	63.858646710008	1908
0	4196	63.903337374257	1909
0	4198	63.929904182753	1910
0	4200	63.933966761209	1911
0	4202	63.950397560091	1912
0	4204	63.954045194493	1913
0	4206	64.008482081405	1914
0	4208	64.025539470505	1915
0	4210	64.086757951522	1916
0	4212	64.098916008078	1917
0	4214	64.105731075095	1918
0	4216	64.175672792734	1919
0	4218	64.201489175255	1920
0	4220	64.211127348034	1921
0	4222	64.230615584723	1922
0	4224	64.248343675694	1923
0	4226	64.291979064754	1924
0	4228	64.312365973886	1925
0	4230	64.365659083492	1926
0	4232	64.37588397919	1927
0	4234	64.398331209312	1928
0	4236	64.422692655888	1929
0	4238	64.428995292509	1930
0	4240	64.491405329695	1931
0	4242	64.50508355158	1932
0	4244	64.505235774491	1933
0	4246	64.525531567671	1934
0	4248	64.545213558228	1935
0	4250	64.572331474655	1936
0	4252	64.57851398058	1937
0	4254	64.681364263345	1938
0	4256	64.752919002409	1939
0	4258	64.756361538994	1940
0	4260	64.786188129113	1941
0	4262	64.792144119134	1942
0	4264	64.803431900982	1943
0	4266	64.833142104314	1944
0	4268	64.842234624121	1945
0	4270	64.886034347346	1946
0	4271	64.931099462723	1945
0	4274	64.969064747477	1946
0	4276	64.972110004057	1947
0	4278	65.043376448585	1948
0	4280	65.057006868811	1949
0	4282	65.094094300427	1950
0	4284	65.094453741809	1951
0	4286	65.147578110003	1952
0	4288	65.206138656524	1953
0	4290	65.271666241617	1954
0	4292	65.292326249747	1955
0	4294	65.292659874951	1956
0	4296	65.307811437576	1957
0	4298	65.343375280317	1958
0	4300	65.40012932004	1959
0	4302	65.429991299496	1960
0	4304	65.490840262756	1961
0	4306	65.496491002824	1962
0	4308	65.503607723567	1963
0	4310	65.523537161779	1964
0	4312	65.530384339113	1965
0	4314	65.549407381873	1966
0	4316	65.582510604044	1967
0	4317	65.615744404374	1966
0	4320	65.634344496702	1967
0	4322	65.643120798797	1968
0	4324	65.697706686069	1969
0	4326	65.724332465891	1970
0	4328	65.748895943113	1971
0	4330	65.764753171558	1972
0	4332	65.774887677405	1973
0	4334	65.782465675076	1974
0	4336	65.821628774241	1975
0	4338	65.886792616619	1976
0	4340	65.897113380129	1977
0	4342	65.911235138779	1978
0	4344	65.92081591906	1979
0	4346	65.979489145256	1980
0	4348	66.005631664637	1981
0	4350	66.00701257284	1982
0	4352	66.052290363482	1983
0	4354	66.07755274571	1984
0	4356	66.089809806497	1985
0	4358	66.108475324081	1986
0	4360	66.231446130516	1987
0	4362	66.23645482401	1988
0	4364	66.249600939674	1989
0	4366	66.252648651862	1990
0	4368	66.308885598221	1991
0	4370	66.350432013771	1992
0	4372	66.388214777858	1993
0	4374	66.402965049514	1994
0	4376	66.495907440334	1995
0	4378	66.538902315904	1996
0	4380	66.540785968612	1997
0	4382	66.545938233922	1998
0	4384	66.580919314182	1999
0	4386	66.600176235065	2000
0	4388	66.608342144193	2001
0	4390	66.614596751014	2002
0	4392	66.634056011838	2003
0	4394	66.636026897051	2004
0	4396	66.758184547455	2005
0	4398	66.80032504635	2006
0	4400	66.858783157258	2007
0	4402	66.861334417221	2008
0	4404	66.866162005181	2009
0	4406	66.888343755371	2010
0	4408	66.89043874604	2011
0	4410	66.911137093781	2012
0	4412	66.9574248748	2013
0	4413	66.975108741193	2012
0	4416	66.9927360596	2013
0	4418	67.007867401169	2014
0	4420	67.088769216357	2015
0	4422	67.102973333778	2016
0	4424	67.108064472446	2017
0	4426	67.124320065923	2018
0	4428	67.150037012088	2019
0	4430	67.172612379671	2020
0	4432	67.199145632799	2021
0	4434	67.20227324445	2022
0	4436	67.224485787705	2023
0	4438	67.3084179069	2024
0	4440	67.32334460019	2025
0	4442	67.34731294503	2026
0	4444	67.384032010092	2027
0	4446	67.409729920182	2028
0	4448	67.445516295968	2029
0	4450	67.445668369672	2030
0	4452	67.447492358569	2031
0	4454	67.520811506065	2032
0	4456	67.528874405155	2033
0	4458	67.536978478307	2034
0	4460	67.546875280376	2035
0	4462	67.615302069721	2036
0	4464	67.680971531041	2037
0	4466	67.683272287034	2038
0	4468	67.715141157899	2039
0	4470	67.749012227699	2040
0	4472	67.817922069316	2041
0	4474	67.817959415578	2042
0	4476	67.836937660419	2043
0	4478	67.854185302807	2044
0	4480	67.893469854193	2045
0	4482	68.002986510339	2046
0	4484	68.054184190286	2047
0	4486	68.125636110893	2048
0	4488	68.150014653042	2049
0	4490	68.162667600983	2050
0	4492	68.168700030297	2051
0	4494	68.173346845009	2052
0	4495	68.173372656594	2051
0	4498	68.204200050328	2052
0	4500	68.228430965715	2053
0	4502	68.268050988006	2054
0	4504	68.318567304169	2055
0	4506	68.345382630342	2056
0	4508	68.387751924714	2057
0	4510	68.393684818542	2058
0	4512	68.422600566718	2059
0	4514	68.436385054008	2060
0	4516	68.532322712768	2061
0	4518	68.570893032981	2062
0	4520	68.609492065933	2063
0	4522	68.706588952466	2064
0	4524	68.710562163662	2065
0	4526	68.74617879407	2066
0	4528	68.828052535642	2067
0	4530	68.890189993438	2068
0	4532	68.942721545923	2069
0	4534	68.96838648066	2070
0	4536	68.983278626067	2071
0	4538	69.014696535321	2072
0	4540	69.044034542774	2073
0	4542	69.099523979668	2074
0	4544	69.106696970927	2075
0	4546	69.121801541344	2076
0	4548	69.158312971296	2077
0	4550	69.204169247447	2078
0	4552	69.218109501025	2079
0	4554	69.388325923273	2080
0	4556	69.409877611203	2081
0	4558	69.419076696377	2082
0	4560	69.420308740878	2083
0	4562	69.461190756225	2084
0	4564	69.504996522898	2085
0	4566	69.517093428343	2086
0	4568	69.532030722922	2087
0	4570	69.54503296707	2088
0	4572	69.569259793259	2089
0	4574	69.594878002851	2090
0	4576	69.60877772026	2091
0	4578	69.665484928015	2092
0	4580	69.702813660512	2093
0	4582	69.713506618878	2094
0	4584	69.722485586781	2095
0	4586	69.722681807273	2096
0	4588	69.750496464266	2097
0	4590	69.821429268718	2098
0	4592	69.842457981478	2099
0	4594	69.876022219038	2100
0	4596	69.944415721851	2101
0	4598	70.034296174644	2102
0	4600	70.03679527713	2103
0	4601	70.052293893413	2102
0	4604	70.066111435363	2103
0	4606	70.117032899951	2104
0	4608	70.146916630602	2105
0	4610	70.154342603374	2106
0	4612	70.205619606258	2107
0	4613	70.225834583333	2106
0	4616	70.247032899763	2107
0	4618	70.29753820978	2108
0	4620	70.331234864157	2109
0	4622	70.343197549565	2110
0	4624	70.347053818979	2111
0	4626	70.36090714802	2112
0	4628	70.427343704586	2113
0	4630	70.43651326241	2114
0	4632	70.439762594601	2115
0	4634	70.469931127785	2116
0	4636	70.47439320604	2117
0	4638	70.493167862865	2118
0	4640	70.505162397172	2119
0	4642	70.588559799479	2120
0	4643	70.602998306545	2119
0	4646	70.605368624718	2120
0	4648	70.608167806058	2121
0	4650	70.654091231547	2122
0	4652	70.671697774691	2123
0	4654	70.6858700968	2124
0	4656	70.6952164693	2125
0	4658	70.72851485388	2126
0	4660	70.757428243654	2127
0	4662	70.807584361452	2128
0	4664	70.831790506986	2129
0	4666	70.837315976848	2130
0	4668	70.852207224513	2131
0	4670	70.878813561739	2132
0	4672	70.884328686567	2133
0	4674	70.885993232495	2134
0	4676	70.913021499483	2135
0	4678	71.030124854161	2136
0	4680	71.10594238615	2137
0	4682	71.170889674884	2138
0	4684	71.195693403491	2139
0	4686	71.32402779395	2140
0	4688	71.352987932745	2141
0	4690	71.415263334023	2142
0	4692	71.503028035261	2143
0	4694	71.53339119539	2144
0	4696	71.551588276771	2145
0	4698	71.60705510934	2146
0	4700	71.61975973032	2147
0	4702	71.667849203435	2148
0	4704	71.738623153142	2149
0	4706	71.753082120699	2150
0	4708	71.835344113514	2151
0	4710	71.865712683428	2152
0	4712	71.877730988702	2153
0	4714	71.898015167317	2154
0	4716	71.931840892292	2155
0	4718	71.966385614112	2156
0	4720	71.997039922974	2157
0	4722	72.069928518129	2158
0	4724	72.079041441547	2159
0	4726	72.099810429927	2160
0	4728	72.149487999689	2161
0	4730	72.166747868186	2162
0	4732	72.181723683774	2163
0	4734	72.208926970836	2164
0	4736	72.209410857631	2165
0	4738	72.358656749369	2166
0	4740	72.513106972975	2167
0	4742	72.518624948677	2168
0	4744	72.539873136651	2169
0	4746	72.557443566427	2170
0	4748	72.609540234818	2171
0	4750	72.67553393589	2172
0	4752	72.727212033598	2173
0	4754	72.72985448815	2174
0	4756	72.804465988811	2175
0	4758	72.808997800986	2176
0	4760	72.850177852475	2177
0	4762	72.890802255267	2178
0	4764	72.995086333211	2179
0	4766	73.033281189819	2180
0	4768	73.110900701206	2181
0	4770	73.152725499508	2182
0	4772	73.177988907016	2183
0	4774	73.185501359941	2184
0	4776	73.263794775822	2185
0	4778	73.269034024794	2186
0	4780	73.287249206245	2187
0	4782	73.336462413163	2188
0	4784	73.382414131509	2189
0	4786	73.435904385283	2190
0	4788	73.44374569068	2191
0	4790	73.538513520929	2192
0	4792	73.562990284366	2193
0	4794	73.566514071582	2194
0	4796	73.58406118758	2195
0	4798	73.627828519891	2196
0	4800	73.650469670185	2197
0	4802	73.663843614531	2198
0	4804	73.663963216349	2199
0	4806	73.688907439628	2200
0	4808	73.717600901493	2201
0	4810	73.748105823911	2202
0	4812	73.751120675604	2203
0	4814	73.777556911765	2204
0	4816	73.783667897722	2205
0	4818	73.794801066126	2206
0	4820	73.802473354743	2207
0	4822	73.830693126866	2208
0	4823	73.881437025762	2207
0	4826	74.047509085433	2208
0	4828	74.142745719695	2209
0	4830	74.145135127957	2210
0	4832	74.185764493868	2211
0	4834	74.193494294865	2212
0	4836	74.214012292073	2213
0	4838	74.231170668677	2214
0	4840	74.292429121972	2215
0	4842	74.316533059343	2216
0	4844	74.351417389622	2217
0	4846	74.472815959346	2218
0	4848	74.478208474357	2219
0	4850	74.482177329966	2220
0	4852	74.510376976044	2221
0	4854	74.516145825507	2222
0	4856	74.650280139511	2223
0	4858	74.673380433189	2224
0	4859	74.686217016955	2223
0	4862	74.688560369608	2224
0	4864	74.696263813069	2225
0	4866	74.713623914126	2226
0	4868	74.728583853423	2227
0	4870	74.737933030228	2228
0	4872	74.76767733243	2229
0	4874	74.777844759036	2230
0	4876	74.849215953105	2231
0	4878	74.858527748255	2232
0	4880	74.878865127364	2233
0	4882	74.886543830508	2234
0	4884	74.892719467178	2235
0	4886	74.894230159608	2236
0	4888	74.961991263854	2237
0	4890	74.973559244282	2238
0	4892	75.005403371222	2239
0	4894	75.005759279197	2240
0	4896	75.041712396973	2241
0	4898	75.074331668228	2242
0	4900	75.163018765878	2243
0	4902	75.192789952006	2244
0	4904	75.193251769622	2245
0	4906	75.360815172212	2246
0	4908	75.376306505406	2247
0	4910	75.389157599295	2248
0	4912	75.416418706286	2249
0	4914	75.450290278653	2250
0	4916	75.504048526717	2251
0	4918	75.507272187119	2252
0	4920	75.534927477047	2253
0	4922	75.567455187182	2254
0	4924	75.653673183471	2255
0	4926	75.656323819107	2256
0	4928	75.694791909127	2257
0	4930	75.730437312379	2258
0	4932	75.787666275031	2259
0	4934	75.850708783172	2260
0	4936	75.94814434267	2261
0	4938	76.050670932716	2262
0	4940	76.063263145976	2263
0	4942	76.152884281857	2264
0	4944	76.179784231962	2265
0	4946	76.227463589527	2266
0	4948	76.269962362585	2267
0	4950	76.276654333094	2268
0	4952	76.302105395545	2269
0	4953	76.30230826191	2268
0	4956	76.323683363436	2269
0	4958	76.361974377469	2270
0	4960	76.370993235336	2271
0	4962	76.381061868986	2272
0	4964	76.407820601123	2273
0	4966	76.410809218001	2274
0	4968	76.426796709596	2275
0	4970	76.43622975341	2276
0	4972	76.496545124467	2277
0	4974	76.497610870581	2278
0	4976	76.506259182164	2279
0	4978	76.528459971191	2280
0	4980	76.620774520666	2281
0	4982	76.622048890954	2282
0	4983	76.653157283776	2281
0	4986	76.659819036748	2282
0	4988	76.662792034606	2283
0	4989	76.745661112594	2282
0	4992	76.760280817029	2283
0	4994	76.805485650331	2284
0	4996	76.816192973957	2285
0	4998	76.820514360759	2286
0	5000	76.884382112027	2287
0	5002	76.915477446405	2288
0	5004	76.954029544778	2289
0	5006	76.978945171162	2290
0	5008	76.996069460148	2291
0	5010	77.015846319872	2292
0	5012	77.033695265811	2293
0	5014	77.127120396604	2294
0	5016	77.151237196829	2295
0	5018	77.155137749936	2296
0	5020	77.163417997551	2297
0	5022	77.197866313141	2298
0	5024	77.215712456022	2299
0	5026	77.252792696537	2300
0	5028	77.286343126136	2301
0	5030	77.296305896047	2302
0	5032	77.308536514936	2303
0	5034	77.322181415949	2304
0	5036	77.325490505881	2305
0	5038	77.328455858394	2306
0	5040	77.337716972116	2307
0	5042	77.370913114242	2308
0	5044	77.397898337733	2309
0	5046	77.403993266834	2310
0	5048	77.427231536522	2311
0	5050	77.477737334452	2312
0	5052	77.492563090399	2313
0	5054	77.515054851335	2314
0	5056	77.545490807171	2315
0	5058	77.647255410772	2316
0	5060	77.64916648927	2317
0	5062	77.667503559043	2318
0	5064	77.697955371727	2319
0	5066	77.766085305079	2320
0	5068	77.79071139322	2321
0	5070	77.796973571664	2322
0	5072	77.892371472849	2323
0	5074	77.917109751795	2324
0	5076	77.946881835441	2325
0	5078	77.976897370834	2326
0	5080	78.015938480332	2327
0	5082	78.03363454099	2328
0	5084	78.041488777229	2329
0	5086	78.071509221514	2330
0	5088	78.105905849699	2331
0	5090	78.142831108732	2332
0	5092	78.171582126377	2333
0	5094	78.236175217133	2334
0	5096	78.309066239087	2335
0	5098	78.389888306435	2336
0	5100	78.545912219874	2337
0	5102	78.625107155655	2338
0	5104	78.664663965035	2339
0	5106	78.787598419721	2340
0	5108	78.832430979338	2341
0	5110	78.865118025343	2342
0	5112	78.918935291112	2343
0	5114	78.920809631354	2344
0	5116	78.970807977639	2345
0	5118	79.042963984522	2346
0	5120	79.135530542682	2347
0	5122	79.141932133901	2348
0	5124	79.186548371209	2349
0	5126	79.210865878204	2350
0	5128	79.227589477727	2351
0	5130	79.22766022382	2352
0	5132	79.232148757661	2353
0	5133	79.254220882011	2352
0	5136	79.258831735808	2353
0	5138	79.293438064441	2354
0	5140	79.36732883369	2355
0	5142	79.373670613721	2356
0	5144	79.375259559283	2357
0	5146	79.379504703229	2358
0	5148	79.420545511649	2359
0	5150	79.446243418589	2360
0	5152	79.462615632864	2361
0	5154	79.476367981727	2362
0	5156	79.542498263916	2363
0	5158	79.557010545559	2364
0	5160	79.593184993868	2365
0	5162	79.602148739466	2366
0	5164	79.612069521362	2367
0	5166	79.623410948221	2368
0	5168	79.635325142547	2369
0	5170	79.677297834593	2370
0	5172	79.694608955658	2371
0	5174	79.703593421766	2372
0	5176	79.716580133604	2373
0	5178	79.74155416564	2374
0	5180	79.753117194714	2375
0	5182	79.798765953956	2376
0	5184	79.801473008439	2377
0	5186	79.847089493444	2378
0	5188	79.874585919384	2379
0	5190	79.880490901286	2380
0	5192	79.914078141597	2381
0	5194	79.952111487748	2382
0	5196	79.962013043113	2383
0	5198	79.962954362275	2384
0	5200	79.980067000472	2385
0	5202	80.007469798022	2386
0	5204	80.03171601422	2387
0	5206	80.04578902989	2388
0	5208	80.06133963844	2389
0	5210	80.064880550378	2390
0	5212	80.069261716088	2391
0	5214	80.129093856896	2392
0	5216	80.151975157293	2393
0	5218	80.172848661642	2394
0	5220	80.221895156992	2395
0	5222	80.246766084526	2396
0	5224	80.348458560866	2397
0	5226	80.348505542168	2398
0	5227	80.364499831854	2397
0	5230	80.426781460067	2398
0	5232	80.449456978486	2399
0	5234	80.455699940781	2400
0	5236	80.496576673647	2401
0	5238	80.601384067136	2402
0	5240	80.621792554077	2403
0	5242	80.631079182341	2404
0	5244	80.658763893488	2405
0	5246	80.746823987408	2406
0	5248	80.761667920277	2407
0	5250	80.792651235101	2408
0	5252	80.814725506089	2409
0	5254	80.842767899592	2410
0	5256	80.845005070172	2411
0	5258	80.880138023129	2412
0	5259	80.913590103838	2411
0	5262	80.940463165945	2412
0	5264	80.97700043724	2413
0	5266	81.007133451791	2414
0	5268	81.019306248283	2415
0	5270	81.070400694713	2416
0	5272	81.098333986406	2417
0	5274	81.114683890709	2418
0	5276	81.141945979712	2419
0	5278	81.201061377786	2420
0	5280	81.208038413177	2421
0	5282	81.23089236639	2422
0	5284	81.266825222484	2423
0	5286	81.32852615801	2424
0	5287	81.390927302223	2423
0	5290	81.393036605063	2424
0	5292	81.42182059034	2425
0	5294	81.444637640442	2426
0	5296	81.46372206083	2427
0	5298	81.470465651605	2428
0	5300	81.52590218694	2429
0	5302	81.542701871764	2430
0	5304	81.622808140661	2431
0	5306	81.671796654209	2432
0	5308	81.696640256726	2433
0	5310	81.74233251347	2434
0	5312	81.806041528939	2435
0	5314	81.81000079221	2436
0	5316	81.825709706983	2437
0	5318	81.897913206774	2438
0	5320	81.904458147421	2439
0	5322	81.915811152886	2440
0	5324	81.983814854682	2441
0	5325	81.995982552721	2440
0	5328	81.996031087106	2441
0	5330	82.010675401612	2442
0	5332	82.028417123625	2443
0	5334	82.041714073378	2444
0	5336	82.054057530753	2445
0	5338	82.069376524679	2446
0	5340	82.083626167065	2447
0	5342	82.086711970362	2448
0	5344	82.124008273756	2449
0	5346	82.134819998213	2450
0	5348	82.163305950725	2451
0	5350	82.232700796702	2452
0	5352	82.233600827179	2453
0	5354	82.246594056183	2454
0	5356	82.269963177998	2455
0	5358	82.276275190928	2456
0	5360	82.294961374889	2457
0	5362	82.378790847711	2458
0	5364	82.415709160315	2459
0	5366	82.430855294936	2460
0	5368	82.433633257529	2461
0	5370	82.462851599448	2462
0	5372	82.473892567932	2463
0	5374	82.479822487121	2464
0	5376	82.560480210963	2465
0	5378	82.612749153495	2466
0	5380	82.654883195403	2467
0	5381	82.657826570859	2466
0	5384	82.734344908632	2467
0	5386	82.748952867367	2468
0	5388	82.760762604236	2469
0	5390	82.807950575443	2470
0	5392	82.814004732938	2471
0	5394	82.830361285891	2472
0	5396	82.875359405219	2473
0	5398	82.926516924269	2474
0	5400	82.981554451569	2475
0	5402	83.021172515378	2476
0	5404	83.026861143888	2477
0	5406	83.02881871644	2478
0	5408	83.072635790065	2479
0	5409	83.114452961327	2478
0	5412	83.115955170135	2479
0	5414	83.156681966648	2480
0	5416	83.165904199055	2481
0	5418	83.269871910413	2482
0	5420	83.276895163956	2483
0	5422	83.295884315058	2484
0	5424	83.331247660709	2485
0	5426	83.340628875568	2486
0	5428	83.344229285264	2487
0	5430	83.371281885778	2488
0	5432	83.395609740399	2489
0	5434	83.454647976858	2490
0	5436	83.45922027939	2491
0	5438	83.486544999002	2492
0	5440	83.608748451566	2493
0	5442	83.615948598761	2494
0	5444	83.663083040673	2495
0	5446	83.712631500511	2496
0	5448	83.735016122634	2497
0	5450	83.749331946376	2498
0	5452	83.763001848493	2499
0	5454	83.795325914062	2500
0	5456	83.809511635639	2501
0	5458	83.827691844938	2502
0	5460	83.851830043194	2503
0	5462	83.881540238201	2504
0	5464	83.924504395769	2505
0	5466	83.92650092348	2506
0	5468	83.932208757515	2507
0	5470	83.935601562189	2508
0	5472	83.944527275163	2509
0	5473	83.979746356636	2508
0	5476	83.986488221921	2509
0	5478	84.021629215475	2510
0	5480	84.061498396939	2511
0	5482	84.065825180218	2512
0	5484	84.096431770257	2513
0	5486	84.098720814688	2514
0	5488	84.099689929147	2515
0	5490	84.187070811805	2516
0	5492	84.313815777954	2517
0	5494	84.376577948642	2518
0	5496	84.396463864836	2519
0	5498	84.402104974156	2520
0	5500	84.463909122976	2521
0	5502	84.553512131681	2522
0	5504	84.573038176041	2523
0	5506	84.576595638552	2524
0	5508	84.578829513186	2525
0	5510	84.596508759449	2526
0	5512	84.625252347326	2527
0	5514	84.682589141352	2528
0	5516	84.731065020568	2529
0	5518	84.753396272567	2530
0	5520	84.779579945553	2531
0	5522	84.788443639019	2532
0	5524	84.821719358044	2533
0	5526	84.830485595377	2534
0	5528	84.834458088365	2535
0	5530	84.838064044081	2536
0	5532	84.850824867928	2537
0	5534	84.912716221955	2538
0	5536	84.927277545302	2539
0	5538	85.03153949619	2540
0	5540	85.04065083033	2541
0	5542	85.153933217418	2542
0	5544	85.157209648029	2543
0	5546	85.196676780418	2544
0	5548	85.216247051781	2545
0	5550	85.251043046102	2546
0	5552	85.343094476104	2547
0	5554	85.347288022722	2548
0	5555	85.356465047825	2547
0	5558	85.410834091968	2548
0	5560	85.421951949078	2549
0	5562	85.435730812434	2550
0	5564	85.461011090012	2551
0	5566	85.472204243139	2552
0	5568	85.499181502797	2553
0	5570	85.532485799729	2554
0	5572	85.54974907619	2555
0	5574	85.601791738798	2556
0	5576	85.623020602819	2557
0	5578	85.640591778783	2558
0	5580	85.644659157471	2559
0	5582	85.686582502982	2560
0	5584	85.695689514642	2561
0	5586	85.773199786069	2562
0	5588	85.838968298382	2563
0	5590	85.863666577183	2564
0	5592	85.8967887904	2565
0	5594	85.904892787447	2566
0	5596	85.975041913744	2567
0	5598	85.98911553506	2568
0	5600	86.051553280664	2569
0	5602	86.080718694663	2570
0	5604	86.092599749077	2571
0	5606	86.110006579973	2572
0	5608	86.127893752928	2573
0	5610	86.130958173319	2574
0	5612	86.145237628956	2575
0	5614	86.182501440372	2576
0	5616	86.189692819904	2577
0	5618	86.243519035324	2578
0	5620	86.245090020254	2579
0	5622	86.258515286062	2580
0	5624	86.30692994869	2581
0	5626	86.318972587012	2582
0	5628	86.351497865135	2583
0	5630	86.363192375021	2584
0	5632	86.370741937061	2585
0	5634	86.378314377072	2586
0	5636	86.397564313098	2587
0	5638	86.45150642293	2588
0	5640	86.478231847703	2589
0	5642	86.602844914249	2590
0	5644	86.643548681462	2591
0	5646	86.646684868841	2592
0	5648	86.677944789482	2593
0	5650	86.699660791105	2594
0	5652	86.70617618208	2595
0	5654	86.805303207176	2596
0	5656	86.817560058042	2597
0	5658	86.841323632253	2598
0	5659	86.881786329917	2597
0	5662	86.885142607718	2598
0	5664	86.890266139463	2599
0	5666	86.892231948586	2600
0	5668	86.901748233174	2601
0	5670	87.02213666142	2602
0	5672	87.03918121937	2603
0	5674	87.041821971067	2604
0	5676	87.054294438114	2605
0	5678	87.090877534258	2606
0	5680	87.11414470493	2607
0	5682	87.163625694411	2608
0	5684	87.229296320426	2609
0	5686	87.242822260526	2610
0	5688	87.242843028942	2611
0	5690	87.291066169523	2612
0	5692	87.311798327413	2613
0	5694	87.316896985551	2614
0	5696	87.351350261479	2615
0	5698	87.548492726465	2616
0	5700	87.548577190832	2617
0	5702	87.582014094573	2618
0	5704	87.607091128126	2619
0	5706	87.6407093821	2620
0	5708	87.654269706085	2621
0	5710	87.711044936598	2622
0	5712	87.715833598875	2623
0	5714	87.751649512353	2624
0	5716	87.755242981526	2625
0	5718	87.790213575745	2626
0	5720	87.795603128776	2627
0	5722	87.852467027518	2628
0	5724	87.966333333335	2629
[...]
7	50662	772.548999587368	903
7	50754	773.977718108153	904
7	50836	775.321217056843	905
7	51106	779.704247068267	906
7	51118	779.844613888546	907
7	51182	780.801966880077	908
7	51332	782.945092573595	909
7	51382	783.652827576868	910
7	51600	786.890256754916	911
7	51628	787.254902552451	912
7	51652	787.493575439399	913
7	51734	789.107979895587	914
7	51778	789.849647832065	915
7	51782	789.854787488003	916
7	51804	790.29555136318	917
7	51830	790.864082866557	918
7	51834	790.951782645303	919
7	51914	791.863626944678	920
7	51916	791.935058036913	921
7	52012	793.406214470154	922
7	52024	793.644876355806	923
7	52060	793.943497276336	924
7	52196	795.637356025732	925
7	52224	796.185912028907	926
7	52240	796.350945827466	927
7	52330	797.456358133087	928
7	52334	797.504143291541	929
7	52352	797.715603646365	930
7	52426	798.747473731414	931
7	52482	799.504990610444	932
7	52486	799.568285893798	933
7	52566	800.597568785867	934
7	52578	800.776257683295	935
7	52588	800.92483519029	936
7	52634	801.703176878035	937
7	52796	804.422681041863	938
7	52816	804.707793190112	939
7	52880	805.696874637371	940
7	53080	808.787033749796	941
7	53168	810.06420751196	942
7	53294	812.597744738128	943
7	53418	814.588097048071	944
7	53446	814.933000783735	945
7	53460	815.146890529967	946
7	53492	815.561399987508	947
7	53506	815.652278397904	948
7	53606	816.957172302101	949
7	53644	817.520606631689	950
7	53686	818.322033792827	951
7	53790	819.940354129199	952
7	53810	820.197568469636	953
7	53830	820.395394830914	954
7	53940	821.762730039777	955
7	53962	822.139748598606	956
7	53964	822.140916705441	957
7	53980	822.445009339504	958
7	54032	823.138099332426	959
7	54044	823.299610152046	960
7	54094	824.006117568955	961
7	54132	824.599264507979	962
7	54188	825.564447523387	963
7	54348	827.517541334006	964
7	54384	828.033592074198	965
7	54446	829.296136209526	966
7	54496	830.097237758035	967
7	54568	831.11844187098	968
7	54606	831.642447200524	969
7	54704	833.320953431296	970
7	54710	833.35799300794	971
7	54742	833.979955238132	972
7	54762	834.249730355788	973
7	54788	834.725927178735	974
7	54842	835.429162654	975
7	54844	835.476490608809	976
7	54846	835.541783667704	977
7	54960	837.104759713247	978
7	55018	838.080055969133	979
7	55148	840.046556054037	980
7	55272	841.814361619643	981
7	55354	843.206784044713	982
7	55496	845.199059048463	983
7	55512	845.374301732129	984
7	55532	845.688767048912	985
7	55610	847.009471601684	986
7	55742	849.120250036482	987
7	55744	849.165771483604	988
7	55814	850.166136415382	989
7	55822	850.211483695019	990
7	55940	851.757704301197	991
7	55950	851.887590073635	992
7	55968	852.081782068924	993
7	56012	852.842346458513	994
7	56036	853.442835829413	995
7	56198	855.976162498022	996
7	56210	856.233675193954	997
7	56278	857.016637788227	998
7	56350	857.960449880323	999
7	56388	858.544770672886	1000
7	56398	858.762642364207	1001
7	56408	858.92318308975	1002
7	56442	859.319123208118	1003
7	56456	859.471958785651	1004
7	56524	860.568066776844	1005
7	56624	862.089073776977	1006
7	56676	862.917975179979	1007
7	56684	862.968059209723	1008
7	56766	864.176368678841	1009
7	56808	864.89692047615	1010
7	56810	864.986036247615	1011
7	56838	865.336863790174	1012
7	56880	866.197378430155	1013
7	56886	866.38919418052	1014
7	56976	867.82692516879	1015
7	57004	868.084788640914	1016
7	57086	869.455028700554	1017
7	57100	869.658676727643	1018
7	57112	869.859923078791	1019
7	57150	870.495164615508	1020
7	57274	873.162417955811	1021
7	57358	874.399488215116	1022
7	57370	874.696925875121	1023
7	57440	875.816964858713	1024
7	57486	876.618206705665	1025
7	57512	876.912000556162	1026
7	57562	877.459096570527	1027
7	57580	877.831052512995	1028
7	57618	878.416677419624	1029
7	57634	878.860103993656	1030
7	57724	880.341559505283	1031
7	57726	880.342961173665	1032
7	57740	880.707073843749	1033
7	57844	882.272628312391	1034
7	57882	882.896890944752	1035
7	57884	882.932658434505	1036
7	58008	885.127679700982	1037
7	58028	885.551114842185	1038
7	58042	885.714157595523	1039
7	58048	885.940913514879	1040
7	58064	886.254517245294	1041
7	58158	887.759189065375	1042
7	58164	887.828341088783	1043
7	58374	891.025590903384	1044
7	58498	892.43874503488	1045
7	58530	893.139896902789	1046
7	58610	894.346155589376	1047
7	58614	894.418927642084	1048
7	58662	895.006427563122	1049
7	58682	895.285239927421	1050
7	58746	896.180214148191	1051
7	58804	897.061386865411	1052
7	58842	897.477641050104	1053
7	58906	898.362491144294	1054
7	58910	898.424623357297	1055
7	58972	899.268733677253	1056
7	59046	900.414928413089	1057
7	59140	901.525549660258	1058
7	59192	902.597432811114	1059
7	59202	902.725789294383	1060
7	59278	903.976903193397	1061
7	59298	904.357362740646	1062
7	59316	904.7398324846	1063
7	59328	904.937543840017	1064
7	59332	904.973170389936	1065
7	59434	907.26155319571	1066
7	59462	907.523961067676	1067
7	59474	907.693696253126	1068
7	59496	908.060888644629	1069
7	59584	909.435920953969	1070
7	59608	909.797429190626	1071
7	59664	910.589193415006	1072
7	59680	910.76925688771	1073
7	59716	911.555680388973	1074
7	59724	911.669187954676	1075
7	59774	912.395991466975	1076
7	59892	914.46712537478	1077
7	59994	916.340107113148	1078
7	60104	917.844914546585	1079
7	60136	918.338652754301	1080
7	60214	919.449496889455	1081
7	60318	920.628434543012	1082
7	60358	921.216903351037	1083
7	60370	921.474180214552	1084
7	60378	921.549989696163	1085
7	60410	921.895461310362	1086
7	60414	922.008110487507	1087
7	60426	922.194733049199	1088
7	60494	923.643459489311	1089
7	60504	923.698689261875	1090
7	60524	923.971288422917	1091
7	60596	925.009261495735	1092
7	60756	927.609634712353	1093
7	60768	927.831872119721	1094
7	60772	927.865548374229	1095
7	60824	928.304447076715	1096
7	60840	928.661976026951	1097
7	60944	930.580092639644	1098
7	60970	930.899994092055	1099
7	61080	932.494828502374	1100
7	61090	932.777038362736	1101
7	61140	933.341583935569	1102
7	61166	933.679378937874	1103
7	61174	933.917629268798	1104
7	61330	936.501398190773	1105
7	61366	936.923792972046	1106
7	61442	938.134179736623	1107
7	61512	939.598016713422	1108
7	61536	939.881959660494	1109
7	61692	942.520798145006	1110
7	61772	943.627718372908	1111
7	61776	943.65295546568	1112
7	61798	943.955775589656	1113
7	61876	945.328817736456	1114
7	61882	945.44369135654	1115
7	61896	945.621511165759	1116
7	61920	945.968183643074	1117
7	61962	946.45432039459	1118
7	62004	947.452559257625	1119
7	62122	949.226129771453	1120
7	62134	949.397873816104	1121
7	62144	949.579270460729	1122
7	62160	949.879482165486	1123
7	62184	950.267082297043	1124
7	62186	950.288417563163	1125
7	62346	952.623738798804	1126
7	62432	954.115304507318	1127
7	62440	954.368933977049	1128
7	62466	954.619503185611	1129
7	62572	956.05192776768	1130
7	62636	957.082215954554	1131
7	62658	957.311927513282	1132
7	62734	958.661771857589	1133
7	62786	959.681116772076	1134
7	62788	959.714184881869	1135
7	62822	960.235204866514	1136
7	62828	960.307075097399	1137
7	62884	960.916119272161	1138
7	62984	962.1982785153	1139
7	63022	962.850964030783	1140
7	63048	963.084872035184	1141
7	63068	963.306275836921	1142
7	63076	963.43184929406	1143
7	63154	964.242573870422	1144
7	63182	964.538828180978	1145
7	63234	965.45984310471	1146
7	63266	965.928184456306	1147
7	63292	966.542482335208	1148
7	63340	967.060223888881	1149
7	63354	967.361044954516	1150
7	63744	973.330671658953	1151
7	63854	974.999088704496	1152
7	63990	976.798822755097	1153
7	64036	977.502677005877	1154
7	64072	978.121060056146	1155
7	64244	980.359761469967	1156
7	64292	980.79960600991	1157
7	64468	983.148712076043	1158
7	64686	986.68789389596	1159
7	64714	987.200398630804	1160
7	64758	987.908228760188	1161
7	64888	989.92968032542	1162
7	64904	990.123582803096	1163
7	64984	991.173867005794	1164
7	65032	992.029860691728	1165
7	65122	993.823428677406	1166
7	65246	995.943062431945	1167
7	65292	996.61101002489	1168
7	65408	998.847060981443	1169
7	65466	999.406706911589	1170
7	65472	999.492237198411	1171
7	65518	1000.085277263233	1172
7	65522	1000.159863966853	1173
7	65540	1000.443359016659	1174
7	65576	1000.911405725569	1175
7	65650	1002.022082828129	1176
7	65722	1003.040545945137	1177
7	65912	1005.781291517854	1178
7	65918	1005.831109717393	1179
7	66066	1007.658255047105	1180
7	66072	1007.77808126952	1181
7	66116	1008.447117374557	1182
7	66172	1009.236168616521	1183
7	66310	1011.329984676165	1184
7	66600	1015.784646213974	1185
7	66652	1016.960353149762	1186
7	66722	1017.900769710701	1187
7	66732	1018.088913707011	1188
7	66754	1018.326709487144	1189
7	66820	1019.471797865905	1190
7	66860	1020.0759908525	1191
7	66932	1021.124378511683	1192
7	66952	1021.274693420245	1193
7	67040	1022.582328544269	1194
7	67228	1024.947829679084	1195
7	67248	1025.244243212143	1196
7	67278	1025.648815566117	1197
7	67312	1026.054245876602	1198
7	67350	1026.602787052882	1199
7	67402	1027.593064858401	1200
7	67666	1031.530251664595	1201
7	67700	1032.122889785332	1202
7	67726	1032.610596867047	1203
7	67770	1033.283798991179	1204
7	67872	1034.589437233934	1205
7	67922	1035.203264299082	1206
7	68226	1039.764041895018	1207
7	68372	1042.217025105584	1208
7	68388	1042.55169839759	1209
7	68392	1042.608028580486	1210
7	68524	1044.265433269396	1211
7	68540	1044.454286615894	1212
7	68618	1045.762431233169	1213
7	68702	1047.089104555505	1214
7	68742	1047.73118351131	1215
7	68812	1048.871469195386	1216
7	68814	1048.886676367916	1217
7	68888	1049.899735058552	1218
7	68944	1050.833616512738	1219
7	68980	1051.351843978445	1220
7	69082	1053.175863309121	1221
7	69214	1055.099388209099	1222
7	69222	1055.154486006779	1223
7	69238	1055.404957905156	1224
7	69368	1057.338523837377	1225
7	69386	1057.470100998296	1226
7	69396	1057.700170082166	1227
7	69408	1057.883391016376	1228
7	69486	1059.161387483286	1229
7	69574	1060.271406038711	1230
7	69622	1061.003243551579	1231
7	69668	1061.62531981265	1232
7	69820	1063.68619892132	1233
7	69858	1064.088119311319	1234
7	69896	1064.578166589774	1235
7	70068	1067.166615073426	1236
7	70102	1067.634109380684	1237
7	70158	1068.477270815281	1238
7	70188	1068.986927078579	1239
7	70294	1070.486162571521	1240
7	70506	1073.607380709369	1241
7	70542	1074.116961153309	1242
7	70590	1074.77219967849	1243
7	70726	1076.682928116753	1244
7	70734	1076.79978171105	1245
7	70922	1079.296707373934	1246
7	71112	1081.921450643341	1247
7	71182	1083.114218417405	1248
7	71206	1083.457469139704	1249
7	71246	1084.078180431924	1250
7	71270	1084.508061878168	1251
7	71378	1086.275315990955	1252
7	71436	1086.961596016407	1253
7	71442	1087.044678094252	1254
7	71552	1089.022893176086	1255
7	71554	1089.066854390108	1256
7	71568	1089.34949465495	1257
7	71584	1089.811019355034	1258
7	71600	1089.908969581575	1259
7	71706	1091.446933948194	1260
7	71708	1091.460714437333	1261
7	71724	1091.852456899943	1262
7	71934	1094.946733270429	1263
7	72070	1096.429991307559	1264
7	72110	1097.006855366179	1265
7	72136	1097.397151631908	1266
7	72148	1097.572507427769	1267
7	72176	1097.975912923497	1268
7	72228	1098.565814934038	1269
7	72314	1099.723090919428	1270
7	72348	1100.175966163531	1271
7	72350	1100.180890282235	1272
7	72414	1101.068798680443	1273
7	72522	1102.636952752184	1274
7	72536	1102.79682392875	1275
7	72568	1103.104809385616	1276
7	72670	1104.435735789339	1277
7	72676	1104.548795497098	1278
7	72904	1107.966642585972	1279
7	72948	1108.578485736578	1280
7	73098	1110.969051411205	1281
7	73104	1111.024311250856	1282
7	73174	1111.956687835116	1283
7	73300	1113.90698198884	1284
7	73308	1113.945563773887	1285
7	73470	1116.353687563176	1286
7	73588	1118.501275234641	1287
7	73608	1118.939390781068	1288
7	73660	1119.66210471712	1289
7	73762	1121.131408600091	1290
7	73866	1122.755858493396	1291
7	73896	1123.125067382269	1292
7	73960	1124.246168738847	1293
7	73962	1124.255136716097	1294
7	73996	1124.727633158815	1295
7	74028	1125.152059656419	1296
7	74112	1126.454523774671	1297
7	74120	1126.590522404609	1298
7	74136	1126.839349767452	1299
7	74142	1126.973875533183	1300
7	74200	1127.902653759208	1301
7	74230	1128.309244067069	1302
7	74316	1130.011388227823	1303
7	74334	1130.2949726901	1304
7	74390	1131.296067018012	1305
7	74432	1131.921301099788	1306
7	74494	1132.772355458154	1307
7	74498	1132.845127315702	1308
7	74602	1133.919237157913	1309
7	74634	1134.36382176911	1310
7	74666	1134.74859128144	1311
7	74730	1135.934798960153	1312
7	74732	1135.9853189817	1313
7	74980	1139.519455486927	1314
7	74994	1139.648860595996	1315
7	75052	1140.788819449354	1316
7	75070	1141.097644008829	1317
7	75256	1144.042918843848	1318
7	75428	1146.957520551181	1319
7	75550	1148.593724764975	1320
7	75556	1148.712234557834	1321
7	75590	1149.350917263127	1322
7	75732	1151.544469739681	1323
7	75894	1153.759645898754	1324
7	75972	1155.030933367006	1325
7	75996	1155.440542960808	1326
7	76146	1158.096807504359	1327
7	76166	1158.365758889803	1328
7	76322	1160.310567289297	1329
7	76448	1162.179096727772	1330
7	76482	1162.623936969303	1331
7	76506	1163.045973433509	1332
7	76562	1164.043264830243	1333
7	76564	1164.051615753406	1334
7	76658	1165.470698097894	1335
7	76752	1167.111837518294	1336
7	76842	1168.370376937442	1337
7	76858	1168.521539291603	1338
7	76946	1169.905730490578	1339
7	76976	1170.284811281994	1340
7	77130	1172.906536490147	1341
7	77242	1174.46728014642	1342
7	77354	1176.707498585601	1343
7	77402	1177.410420978045	1344
7	77406	1177.450450940019	1345
7	77516	1179.107474232636	1346
7	77522	1179.171428387975	1347
7	77570	1179.781895222783	1348
7	77592	1180.055608831952	1349
7	77640	1180.756582637872	1350
7	77642	1180.762121576604	1351
7	77654	1180.933405682015	1352
7	77698	1181.462903585986	1353
7	77852	1184.212272491812	1354
7	77892	1184.665832774508	1355
7	77896	1184.715231093421	1356
7	77900	1184.769307850174	1357
7	77984	1186.329105009788	1358
7	78152	1189.012544909427	1359
7	78170	1189.082450673442	1360
7	78302	1191.369511007741	1361
7	78344	1192.235429540373	1362
7	78460	1193.775732209552	1363
7	78502	1194.637314103313	1364
7	78668	1197.65447982888	1365
7	78680	1197.798166386323	1366
7	78768	1199.017369736261	1367
7	78894	1200.727129473687	1368
7	78950	1201.791848327252	1369
7	79046	1203.073443704174	1370
7	79102	1203.924758501931	1371
7	79244	1206.252709226336	1372
7	79290	1207.109200813144	1373
7	79380	1208.44577050026	1374
7	79394	1208.76128744637	1375
7	79410	1208.920570488918	1376
7	79426	1209.205126147408	1377
7	79466	1209.658566770672	1378
7	79514	1210.366949391522	1379
7	79628	1212.345196460079	1380
7	79644	1212.701801465947	1381
7	79678	1213.189719188455	1382
7	79738	1214.154208458297	1383
7	79752	1214.414104085441	1384
7	79770	1214.591745570927	1385
7	79798	1215.413330921289	1386
7	79870	1216.420934403097	1387
7	79958	1217.83769478594	1388
7	80012	1218.615126979996	1389
7	80044	1219.418141949897	1390
7	80046	1219.445903097339	1391
7	80200	1221.494986478178	1392
7	80278	1223.077294424803	1393
7	80322	1223.695071343934	1394
7	80420	1225.248727034889	1395
7	80476	1225.950363138988	1396
7	80526	1226.684647856842	1397
7	80634	1228.338330449405	1398
7	80682	1229.265328613459	1399
7	80770	1230.646427068295	1400
7	80818	1231.254089217574	1401
7	80828	1231.38566584346	1402
7	80864	1231.987496771703	1403
7	80898	1232.305584238254	1404
7	80922	1232.665814071107	1405
7	80948	1232.958766389682	1406
7	80962	1233.143771537671	1407
7	81006	1233.841409232857	1408
7	81058	1234.929898929126	1409
7	81122	1235.812121487241	1410
7	81174	1236.539938156758	1411
7	81218	1237.150990073262	1412
7	81290	1238.125837531522	1413
7	81292	1238.157736695395	1414
7	81296	1238.265501201916	1415
7	81322	1238.840604926687	1416
7	81340	1239.188889688275	1417
7	81384	1239.74569142842	1418
7	81456	1240.973202070234	1419
7	81590	1243.613502048044	1420
7	81670	1245.421777093644	1421
7	81788	1247.09121766685	1422
7	81930	1248.799841575561	1423
7	81932	1248.85634387183	1424
7	81942	1249.063959972551	1425
7	81946	1249.162145596231	1426
7	81976	1249.60304352729	1427
7	82036	1250.513587823629	1428
7	82046	1250.738395476953	1429
7	82130	1251.698633376455	1430
7	82146	1251.820543260269	1431
7	82182	1252.308596366074	1432
7	82190	1252.513659859996	1433
7	82252	1253.783211323449	1434
7	82522	1257.950528518795	1435
7	82588	1259.183237741297	1436
7	82604	1259.511804525695	1437
7	82754	1262.057426254753	1438
7	82820	1263.248279865156	1439
7	82846	1263.600783145163	1440
7	82900	1264.359793210468	1441
7	82918	1264.547337851586	1442
7	82932	1264.669131180472	1443
7	83010	1265.629647875904	1444
7	83144	1267.759592006822	1445
7	83266	1269.899532051818	1446
7	83388	1271.646226911897	1447
7	83422	1272.057675052894	1448
7	83424	1272.145800275304	1449
7	83446	1272.622295262816	1450
7	83450	1272.647056422392	1451
7	83470	1272.91864336074	1452
7	83496	1273.332479884061	1453
7	83534	1273.855755805338	1454
7	83570	1274.315513262622	1455
7	83618	1274.965808113737	1456
7	83678	1275.611430536135	1457
7	83806	1277.38666295296	1458
7	83892	1279.088828382618	1459
7	83928	1279.54570587413	1460
7	84006	1280.705831032906	1461
7	84186	1283.164103307559	1462
7	84196	1283.365588890156	1463
7	84402	1286.894849322963	1464
7	84576	1289.49338066082	1465
7	84732	1291.452596059679	1466
7	84748	1291.764760022044	1467
7	84878	1294.266709713522	1468
7	85020	1296.861509626119	1469
7	85130	1298.785520964326	1470
7	85206	1300.002601834214	1471
7	85250	1300.654612430196	1472
7	85296	1301.387143760899	1473
7	85360	1302.414530328188	1474
7	85396	1302.787617418781	1475
7	85398	1302.842892490997	1476
7	85402	1302.885137887706	1477
7	85548	1305.329565816769	1478
7	85582	1305.71514332017	1479
7	85590	1305.987515802759	1480
7	85674	1307.051161447407	1481
7	85806	1309.059440881926	1482
7	85826	1309.48106947619	1483
7	85832	1309.581032450363	1484
7	85858	1309.800891071702	1485
7	85866	1309.869176743587	1486
7	85874	1309.99876732195	1487
7	85906	1310.475171440117	1488
7	85922	1310.622237008783	1489
7	85996	1311.654443321914	1490
7	86030	1312.183062864192	1491
7	86080	1312.948588142567	1492
7	86112	1313.367103272998	1493
7	86144	1313.699957765588	1494
7	86204	1314.838287884299	1495
7	86208	1314.93488487323	1496
7	86210	1314.972201691043	1497
7	86366	1317.500723505828	1498
7	86426	1318.345825605331	1499
7	86446	1318.609061030884	1500
7	86558	1320.663456384697	1501
7	86642	1321.818325443901	1502
7	86716	1322.931398909703	1503
7	86790	1324.406578323505	1504
7	86806	1324.704359619151	1505
7	86826	1324.968766141335	1506
7	86866	1325.364931087092	1507
7	86940	1326.382556668787	1508
7	87014	1327.747697286999	1509
7	87026	1328.006321472479	1510
7	87126	1329.470939429317	1511
7	87296	1333.183064758116	1512
7	87306	1333.417174480912	1513
7	87356	1334.141798235978	1514
7	87364	1334.33262794163	1515
7	87374	1334.38186412191	1516
7	87532	1337.273849317411	1517
7	87726	1340.165726986977	1518
7	87760	1340.901575308562	1519
7	87766	1340.920273443007	1520
7	87776	1341.077148772595	1521
7	87850	1341.941898656458	1522
7	87898	1342.601126381569	1523
7	88058	1345.188894815127	1524
7	88128	1345.975790342899	1525
7	88152	1346.56425647536	1526
7	88208	1347.322124819047	1527
7	88226	1347.712026987285	1528
7	88252	1347.957171276857	1529
7	88294	1348.525550161983	1530
7	88304	1348.637143352989	1531
7	88324	1348.837159032009	1532
7	88354	1349.191878210952	1533
7	88386	1349.510884731974	1534
7	88396	1349.67988620703	1535
7	88470	1350.669894763617	1536
7	88514	1351.34083917458	1537
7	88524	1351.544191396323	1538
7	88528	1351.586720561295	1539
7	88558	1352.03203614148	1540
7	88704	1354.121929244962	1541
7	88870	1356.622963562428	1542
7	88936	1357.358520586156	1543
7	89116	1359.867876722173	1544
7	89150	1360.471220999534	1545
7	89160	1360.57204404708	1546
7	89184	1360.979422683202	1547
7	89250	1362.113682103191	1548
7	89300	1362.755833535895	1549
7	89366	1363.721158577365	1550
7	89518	1365.903622014729	1551
7	89558	1366.344323094212	1552
7	89730	1368.431659285405	1553
7	89766	1368.775528113847	1554
7	89834	1369.851147955296	1555
7	89842	1369.928681073241	1556
7	89848	1369.979189402784	1557
7	89852	1369.988853583529	1558
7	89874	1370.355418099506	1559
7	89984	1371.983508746604	1560
7	90038	1372.667694273428	1561

