version 2
run Three_Classes-0-20191214-01:06:30-10528
attr configname Three_Classes
attr datetime 20191214-01:06:30
attr experiment Three_Classes
attr inifile omnetpp.ini
attr iterationvars ""
attr iterationvarsf ""
attr measurement ""
attr network Net
attr processid 10528
attr repetition 0
attr replication #0
attr resultdir results
attr runnumber 0
attr seedset 0
param **.n 3
param **.policy ask
param **.gen[0].interArrivalTime exponential(0.3s)
param **.gen[0].serviceTime exponential(0.9s)
param **.gen[1].interArrivalTime exponential(0.4s)
param **.gen[1].serviceTime exponential(0.3s)
param **.gen[2].interArrivalTime exponential(0.5s)
param **.gen[2].serviceTime exponential(0.4s)

vector 0 Net.sys qlen:vector ETV
attr interpolationmode sample-hold
attr title "queue length, vector"
vector 1 Net.sys queueingTime:vector ETV
attr interpolationmode none
attr title "queueing time at dequeue, vector"
attr unit s
vector 2 Net.sys "Class 1 QueueingTime:vector" ETV
attr interpolationmode none
attr title "queueing time per class, vector"
attr unit s
vector 3 Net.sys responseTime:vector ETV
attr interpolationmode none
attr title "response time at end of service, vector"
attr unit s
vector 4 Net.sys "Class 1 ResponseTime:vector" ETV
attr interpolationmode none
attr title "response time per class, vector"
attr unit s
vector 5 Net.sys "Class 1 ExtServiceTime:vector" ETV
attr interpolationmode none
attr title "extended service time per class, vector"
attr unit s
vector 6 Net.sink lifetime:vector ETV
attr interpolationmode none
attr title "lifetime of arrived msg, vector"
attr unit s
vector 7 Net.sink arrivedMsg:vector ETV
attr interpolationmode none
attr title "number of arrived msg, vector"
0	0	0	0
0	4	0	0
0	5	0	1
0	6	0	2
0	8	0.269568116545	3
0	9	0.716287054109	2
0	12	0.74384168483	3
0	14	0.833257332806	4
0	16	0.975772667942	5
0	18	0.978795781922	6
0	20	0.99631118265	7
0	22	1.091818024903	8
0	24	1.134644255387	9
0	26	1.152352237511	10
0	28	1.286651929378	11
0	29	1.424768080093	10
0	32	1.436313532083	11
0	34	1.479293521122	12
0	36	1.685082519243	13
0	38	1.803528735517	14
0	40	1.978824311365	15
0	42	1.987227990419	16
0	44	2.047720331885	17
0	46	2.207388773397	18
0	47	2.35911145069	17
0	50	2.528243359736	18
0	52	2.86407721825	19
0	54	2.923875289968	20
0	56	3.158062986726	21
0	58	3.264656972481	22
0	60	3.335244397182	23
0	62	3.526353330994	24
0	64	3.668154067615	25
0	66	3.712932531868	26
0	68	3.720661726416	27
0	70	3.823763367431	28
0	72	3.952762735022	29
0	74	3.96961041268	30
0	76	4.025977282243	31
0	78	4.027721623597	32
0	80	4.092576219375	33
0	82	4.143508525446	34
0	84	4.193152992205	35
0	86	4.290075640238	36
0	87	4.360283430523	35
0	90	4.469399463284	36
0	92	4.491408459743	37
0	94	4.754247838333	38
0	96	4.785616206066	39
0	98	5.124718341891	40
0	100	5.548251994486	41
0	102	5.623222420893	42
0	104	5.65458399059	43
0	106	5.800584032341	44
0	108	5.835680311402	45
0	110	5.953614078593	46
0	112	5.965369025517	47
0	114	6.17500865625	48
0	116	6.267130327067	49
0	118	6.349105335486	50
0	120	6.584478251073	51
0	122	6.853114958196	52
0	124	7.289072885009	53
0	125	7.343704482458	52
0	128	7.452187313071	53
0	130	7.556605223551	54
0	132	7.709699713712	55
0	133	7.778946376912	54
0	136	7.874700205681	55
0	138	8.045037260586	56
0	140	8.192508356146	57
0	142	8.235815182273	58
0	144	8.323967526294	59
0	145	8.534435944522	58
0	148	8.644498956128	59
0	150	8.648598329657	60
0	152	8.758475278645	61
0	154	8.941128909904	62
0	156	9.206401024947	63
0	158	9.729410128199	64
0	160	10.013205421607	65
0	162	10.030403499534	66
0	164	10.048529545264	67
0	166	10.056605596522	68
0	168	10.085701924866	69
0	170	10.210387565526	70
0	172	10.289756952069	71
0	174	10.344013404102	72
0	176	10.552015465814	73
0	178	10.694075462067	74
0	179	10.872864621786	73
0	182	11.401710344615	74
0	184	11.445248996993	75
0	186	11.499468523848	76
0	188	11.695102051813	77
0	190	11.908476432978	78
0	192	12.031486986289	79
0	194	12.300764732851	80
0	196	12.335472925787	81
0	198	12.465609091999	82
0	200	12.469369392265	83
0	201	12.481603518881	82
0	204	12.654151140071	83
0	206	12.966685336325	84
0	208	13.208300452666	85
0	210	13.301639240268	86
0	212	13.331307542171	87
0	214	13.519070077771	88
0	216	13.555239301896	89
0	218	13.573145753366	90
0	220	13.620648205235	91
0	222	13.653226502092	92
0	224	13.786104749918	93
0	225	13.846485895472	92
0	228	13.87357311488	93
0	230	13.956278119036	94
0	232	14.043944360924	95
0	234	14.139829963467	96
0	236	14.1952475029	97
0	238	14.500845121906	98
0	240	14.661790323683	99
0	241	14.765774582386	98
0	244	15.045323393811	99
0	246	15.167297191448	100
0	248	15.231594305449	101
0	250	15.283875151543	102
0	252	15.29335762913	103
0	254	15.558718877438	104
0	256	15.866602574969	105
0	258	15.981566765397	106
0	260	16.12135988586	107
0	262	16.13186230236	108
0	264	16.320199166421	109
0	266	16.487006866535	110
0	268	16.643549631662	111
0	270	16.722166804165	112
0	272	16.791753975053	113
0	274	16.872860043643	114
0	276	17.06609145614	115
0	278	17.177535401251	116
0	280	17.256629770829	117
0	282	17.358529190604	118
0	283	17.370753012574	117
0	286	17.503619896581	118
0	288	17.681152808157	119
0	290	17.803545112386	120
0	292	17.857818661633	121
0	294	17.906280038921	122
0	296	17.918513658542	123
0	297	17.918927193439	122
0	299	17.93599890572	121
0	302	18.124794045808	122
0	304	18.141895754987	123
0	306	18.15927925427	124
0	308	18.275418281915	125
0	310	18.350442730408	126
0	312	18.396130817984	127
0	314	18.42682700244	128
0	316	18.524131850137	129
0	318	18.644758215426	130
0	319	18.799592085351	129
0	322	18.952788959245	130
0	324	19.190418358575	131
0	326	19.232371092815	132
0	328	19.406109355193	133
0	330	19.659494402282	134
0	332	19.668169930593	135
0	333	19.830217144581	134
0	336	19.878163494628	135
0	338	19.89730495107	136
0	339	20.231183790127	135
0	342	20.252263914682	136
0	344	20.343533215623	137
0	346	20.373223117518	138
0	348	20.395387516313	139
0	350	20.607388667568	140
0	352	20.667705071646	141
0	354	20.681219785867	142
0	356	20.973819066176	143
0	358	21.098444943428	144
0	360	21.114000836099	145
0	362	21.129574601754	146
0	364	21.266048155192	147
0	366	21.27107848499	148
0	367	21.307680809638	147
0	370	21.34977727774	148
0	371	21.363584571058	147
0	374	21.3708735075	148
0	375	21.77047642526	147
0	378	21.784115502337	148
0	380	22.200002907943	149
0	382	22.301158521389	150
0	384	22.324386670741	151
0	386	22.448580347543	152
0	388	22.507929199781	153
0	389	22.530461439435	152
0	392	22.564184885142	153
0	394	22.570142728122	154
0	396	22.750964088336	155
0	398	22.813179383551	156
0	399	23.050053319161	155
0	401	23.146924916501	154
0	404	23.281748742413	155
0	405	23.305247107384	154
0	408	23.400555152299	155
0	409	23.439088149711	154
0	412	23.616327374858	155
0	414	23.735730756075	156
0	416	23.761572208973	157
0	418	23.824287305719	158
0	420	24.012887642806	159
0	422	24.137274764794	160
0	424	24.362057662244	161
0	426	24.591913362897	162
0	427	24.987386641656	161
0	429	25.079317035028	160
0	432	25.147784188407	161
0	433	25.170248332806	160
0	436	25.288027172117	161
0	438	25.360643645989	162
0	440	25.480020082413	163
0	442	25.530421188137	164
0	444	25.604478968777	165
0	446	25.605819388969	166
0	448	25.857372601401	167
0	450	25.906658882231	168
0	452	26.477227833661	169
0	454	26.482957921949	170
0	456	26.506186866795	171
0	458	26.521804978659	172
0	460	26.773832356271	173
0	462	26.911716205562	174
0	464	27.200148077033	175
0	466	27.434740793296	176
0	468	27.586140025925	177
0	470	28.01324883436	178
0	472	28.208618053935	179
0	474	28.267105888078	180
0	476	28.272510201801	181
0	478	28.547724717708	182
0	479	28.55598288886	181
0	482	28.734136054381	182
0	484	28.737903723526	183
0	486	28.774191509837	184
0	488	28.833229922993	185
0	490	28.937370487612	186
0	492	29.03855251125	187
0	493	29.391613536071	186
0	496	29.448579174777	187
0	497	29.506864624851	186
0	499	29.620614397634	185
0	502	29.759934197424	186
0	504	29.790795802602	187
0	506	29.87770610588	188
0	508	29.877722711449	189
0	510	29.989851699594	190
0	512	30.084142871869	191
0	513	30.102010335815	190
0	516	30.156102948308	191
0	518	30.212474391965	192
0	520	30.49782024351	193
0	522	30.516996698319	194
0	524	30.695971167435	195
0	526	30.774163206248	196
0	528	30.950448344219	197
0	530	31.101020084828	198
0	531	31.163280910174	197
0	534	31.294328167223	198
0	536	31.410987202431	199
0	537	31.440854266262	198
0	540	31.613422470019	199
0	542	31.696859790635	200
0	544	31.783992435816	201
0	546	32.09575412679	202
0	547	32.107537321664	201
0	550	32.168330020221	202
0	552	32.230237418302	203
0	553	32.234734963869	202
0	556	32.352345974715	203
0	558	32.363858301394	204
0	560	32.72466027025	205
0	562	32.813242501213	206
0	564	32.821920004296	207
0	566	32.89014707755	208
0	568	33.039685951616	209
0	570	33.138961845182	210
0	572	33.18761980785	211
0	574	33.230659575265	212
0	576	33.241702097723	213
0	578	33.283995824574	214
0	580	33.296366341198	215
0	581	33.368675392967	214
0	583	33.386956605883	213
0	585	33.391192492326	212
0	588	33.625829403917	213
0	590	33.654979707427	214
0	592	33.72853913522	215
0	594	33.846103546966	216
0	596	33.957317653086	217
0	598	33.980661524908	218
0	600	34.097989449536	219
0	602	34.143534075065	220
0	604	34.267066806958	221
0	606	34.299623239351	222
0	608	34.372354050285	223
0	610	34.376067260036	224
0	611	34.410563220101	223
0	614	34.482809618822	224
0	616	34.705193750465	225
0	618	35.092063101828	226
0	620	35.172239979862	227
0	622	35.313038987144	228
0	624	35.459538571905	229
0	626	35.729600947491	230
0	628	35.747321852877	231
0	630	35.870529763983	232
0	632	36.009384504072	233
0	634	36.079143243567	234
0	636	36.174169408293	235
0	638	36.350264044389	236
0	640	36.616601039044	237
0	642	36.642651136387	238
0	644	36.802787906078	239
0	646	36.849481497741	240
0	648	36.914310362719	241
0	650	37.109753224256	242
0	651	37.358192080044	241
0	654	37.359583107514	242
0	656	37.733503727569	243
0	658	37.954407778895	244
0	659	38.13074575109	243
0	662	38.491538192482	244
0	664	38.573616156562	245
0	666	38.57523868509	246
0	668	38.700837844315	247
0	669	38.895044481498	246
0	672	38.912224735636	247
0	673	39.1222224751	246
0	676	39.135827803632	247
0	678	39.191876040962	248
0	680	39.214965606769	249
0	682	39.253539677952	250
0	684	39.277266433737	251
0	686	39.448233362277	252
0	688	39.485697962171	253
0	690	39.654095281391	254
0	692	39.869301513696	255
0	694	40.134282303332	256
0	696	40.276213025533	257
0	698	40.356856973035	258
0	700	40.43782965822	259
0	702	40.480209359073	260
0	704	40.536503925598	261
0	706	40.733255131159	262
0	707	40.808336366971	261
0	710	40.885619307478	262
0	712	40.889833284851	263
0	714	41.118560390115	264
0	716	41.227533055786	265
0	718	41.522838080001	266
0	720	41.63824316414	267
0	722	41.87084869514	268
0	723	41.971054708892	267
0	726	42.090794671182	268
0	728	42.260685020663	269
0	730	42.317152487836	270
0	732	42.369738429342	271
0	734	42.512682004121	272
0	736	42.543142229303	273
0	738	42.631912791277	274
0	740	42.900811552783	275
0	742	42.958119566295	276
0	744	43.02500041712	277
0	746	43.094963963996	278
0	748	43.270376052957	279
0	750	43.292771002288	280
0	752	43.318038921529	281
0	754	43.488490066652	282
0	756	43.503745561371	283
0	758	43.788548787621	284
0	760	43.824683685254	285
0	762	44.014604460159	286
0	764	44.084030751746	287
0	766	44.250192131109	288
0	768	44.256254448654	289
0	770	44.334839203013	290
0	772	44.363806847059	291
0	774	44.367701010795	292
0	776	44.647766282009	293
0	778	44.690742188424	294
0	779	44.783976230784	293
0	782	44.822037441402	294
0	784	45.143880668791	295
0	786	45.258134606572	296
0	788	45.520648714093	297
0	790	45.528114996033	298
0	792	45.71082835204	299
0	793	45.713493540365	298
0	796	45.911897915013	299
0	798	46.072519220341	300
0	800	46.118261745794	301
0	802	46.129908034111	302
0	804	46.385354876205	303
0	806	46.440715991377	304
0	808	46.527813571564	305
0	809	46.552656132731	304
0	811	46.570097935944	303
0	814	46.589162559794	304
0	816	46.605456364316	305
0	818	46.710514220679	306
0	820	46.868137249458	307
0	822	46.903649291281	308
0	824	46.931742056178	309
0	826	46.955908906256	310
0	828	46.987176784747	311
0	830	46.992877554068	312
0	832	47.02589577367	313
0	834	47.060542571449	314
0	836	47.215390339085	315
0	837	47.541486114734	314
0	840	47.705075371097	315
0	842	47.744323180149	316
0	844	47.844381221142	317
0	845	47.849825776962	316
0	848	47.966586745412	317
0	850	48.036673284721	318
0	852	48.199885769322	319
0	854	48.213606819537	320
0	856	48.313774738219	321
0	858	48.414565635908	322
0	860	48.417509966827	323
0	862	48.52808484871	324
0	864	48.607612779132	325
0	865	48.715963327156	324
0	868	48.817620469967	325
0	870	48.870867868579	326
0	872	48.896398822849	327
0	874	48.93741958005	328
0	876	49.278877150561	329
0	878	49.326223936475	330
0	880	49.394839387424	331
0	881	49.520319497631	330
0	884	49.739543036803	331
0	886	49.766192751599	332
0	888	49.795959209544	333
0	890	50.097174561707	334
0	892	50.272846877983	335
0	893	50.470584145425	334
0	895	50.978733596434	333
0	898	50.991708458905	334
0	900	51.169632938103	335
0	902	51.348238983562	336
0	904	51.559884166341	337
0	906	51.653149105825	338
0	908	51.669895712479	339
0	910	51.716935892724	340
0	912	51.845926354483	341
0	914	51.890526389102	342
0	916	51.965540535895	343
0	918	52.073615786758	344
0	920	52.349771824591	345
0	922	52.415699449834	346
0	924	52.446800700827	347
0	926	52.475763084535	348
0	928	52.49304095958	349
0	930	52.520193200624	350
0	932	52.601410517845	351
0	934	52.637182577174	352
0	936	52.819522817523	353
0	938	52.93275058515	354
0	939	53.020504189857	353
0	942	53.150273164603	354
0	944	53.179345266367	355
0	946	53.195847258895	356
0	948	53.352487451521	357
0	950	53.386240892171	358
0	951	53.432859785419	357
0	954	53.527831318503	358
0	956	53.629778193839	359
0	958	53.730438079555	360
0	960	53.814610857408	361
0	962	53.942256341434	362
0	963	53.948075181705	361
0	966	53.95528725559	362
0	968	53.960950302128	363
0	970	54.06663577183	364
0	971	54.093758259746	363
0	974	54.560190799952	364
0	976	54.673324172085	365
0	978	54.85693534308	366
0	980	54.866706304175	367
0	982	55.006960120328	368
0	984	55.03618078319	369
0	986	55.352304624101	370
0	988	55.496068432446	371
0	990	55.496445820362	372
0	992	55.628559932199	373
0	993	55.789294257673	372
0	996	55.797548425164	373
0	998	56.004102591577	374
0	1000	56.171600628356	375
0	1002	56.542702193331	376
0	1004	56.590429217533	377
0	1006	56.690336519661	378
0	1007	56.865188967327	377
0	1010	56.886757926501	378
0	1012	57.078812578123	379
0	1014	57.112377325746	380
0	1016	57.281501863683	381
0	1018	57.519970620242	382
0	1020	57.731530043822	383
0	1022	57.783387196337	384
0	1024	57.820742102194	385
0	1025	58.017489750758	384
0	1028	58.023826308489	385
0	1030	58.179089085246	386
0	1032	58.217800636201	387
0	1034	58.300742451164	388
0	1036	58.378476127929	389
0	1038	58.58019099854	390
0	1040	58.627628413377	391
0	1042	58.804962171778	392
0	1044	58.999569827681	393
0	1046	59.160679891833	394
0	1048	59.221095589964	395
0	1050	59.2465552535	396
0	1052	59.289306137195	397
0	1054	59.429944844687	398
0	1056	59.547593231574	399
0	1058	59.719745052047	400
0	1059	59.828985213343	399
0	1062	59.889531853573	400
0	1064	59.99382226142	401
0	1066	60.099845506371	402
0	1068	60.134350774037	403
0	1070	60.307816716187	404
0	1072	60.513423666893	405
0	1074	60.751213270777	406
0	1076	60.818726018936	407
0	1078	60.844177406023	408
0	1080	60.918670240484	409
0	1082	61.057292679329	410
0	1084	61.064771108047	411
0	1086	61.113113881695	412
0	1088	61.13312615837	413
0	1090	61.137467541494	414
0	1092	61.155531815515	415
0	1094	61.439362337891	416
0	1096	61.631339491915	417
0	1098	61.748485583885	418
0	1100	61.773699807406	419
0	1102	61.868671719219	420
0	1104	61.910830171184	421
0	1106	61.916301708298	422
0	1108	61.938859251047	423
0	1110	61.944706038933	424
0	1112	62.343976310583	425
0	1114	62.424341330867	426
0	1116	62.574017832338	427
0	1118	62.695390551018	428
0	1120	63.111979066055	429
0	1122	63.129036560433	430
0	1123	63.167949746056	429
0	1126	63.200956604671	430
0	1128	63.288457084639	431
0	1130	63.301371106852	432
0	1132	64.227801559325	433
0	1134	64.396194464131	434
0	1136	64.558902822712	435
0	1138	64.59772817749	436
0	1140	64.604582025073	437
0	1142	64.605792363343	438
0	1144	64.725730945086	439
0	1145	64.910869259798	438
0	1147	64.921474168525	437
0	1150	64.997593362162	438
0	1152	65.071439711325	439
0	1154	65.685149257748	440
0	1156	65.750208415815	441
0	1158	65.885340023478	442
0	1160	65.998450136351	443
0	1161	66.099842696145	442
0	1164	66.244522941084	443
0	1165	66.269308173842	442
0	1168	66.284303811302	443
0	1169	66.319591221442	442
0	1172	66.410307211948	443
0	1174	66.489077146394	444
0	1175	66.520416508733	443
0	1177	66.537242432112	442
0	1180	66.586388538406	443
0	1182	67.038571417732	444
0	1184	67.278842497054	445
0	1186	67.446152690163	446
0	1188	67.517304347874	447
0	1190	67.565449580081	448
0	1192	67.573509896585	449
0	1194	67.605897071943	450
0	1196	67.783979962725	451
0	1197	67.957813882007	450
0	1200	67.976715312779	451
0	1202	67.986648595878	452
0	1204	68.092276506987	453
0	1206	68.147464043045	454
0	1208	68.313285671417	455
0	1210	68.316320491175	456
0	1211	68.339105273228	455
0	1214	68.357038344869	456
0	1216	68.380003974666	457
0	1218	68.383423182124	458
0	1219	68.501066880625	457
0	1222	68.593454727882	458
0	1223	68.745568143933	457
0	1226	69.066925424023	458
0	1227	69.082065990246	457
0	1230	69.098339106052	458
0	1232	69.180489796279	459
0	1234	69.200991513537	460
0	1235	69.267494833881	459
0	1238	69.567748190246	460
0	1240	69.58735858527	461
0	1242	69.664634045172	462
0	1244	69.771180717635	463
0	1246	69.813968878435	464
0	1248	69.846647767945	465
0	1250	70.585441048767	466
0	1252	70.711305435434	467
0	1254	70.91558160791	468
0	1256	71.001809763164	469
0	1258	71.20258140797	470
0	1260	71.214394132436	471
0	1262	71.262224026534	472
0	1264	71.496789353465	473
0	1266	71.524722409557	474
0	1268	71.766248921689	475
0	1269	71.86766286659	474
0	1272	72.222349609975	475
0	1274	72.469570560831	476
0	1275	72.474482979263	475
0	1278	72.587925539292	476
0	1279	72.901457640563	475
0	1282	72.914707912523	476
0	1284	72.97523240747	477
0	1285	73.079628602364	476
0	1287	73.102118120346	475
0	1290	73.170949808142	476
0	1292	73.330129166002	477
0	1294	73.537420305243	478
0	1296	73.569522079309	479
0	1298	73.852093551427	480
0	1300	73.861136769853	481
0	1302	74.035809635893	482
0	1304	74.042892651805	483
0	1306	74.095487406849	484
0	1308	74.100248958914	485
0	1310	74.122212575977	486
0	1311	74.125902775333	485
0	1314	74.183917311731	486
0	1316	74.197019746694	487
0	1318	74.24018228492	488
0	1320	74.311173031263	489
0	1322	74.381718502844	490
0	1324	74.499538861213	491
0	1326	74.559370808344	492
0	1327	74.670025871835	491
0	1330	74.832714550765	492
0	1332	74.846640918389	493
0	1334	74.914274302337	494
0	1336	74.961575918186	495
0	1338	75.08425117696	496
0	1340	75.194487062724	497
0	1342	75.373818785369	498
0	1344	75.378922632283	499
0	1346	75.565836529345	500
0	1348	75.85055458628	501
0	1350	76.011256739804	502
0	1352	76.20437418156	503
0	1354	76.215057946971	504
0	1356	76.265509796223	505
0	1358	76.327820782087	506
0	1360	76.341439343032	507
0	1362	76.500310941009	508
0	1364	76.637540219598	509
0	1366	76.638781962321	510
0	1368	76.693558032031	511
0	1370	76.704619461719	512
0	1372	76.706180401561	513
0	1374	77.00261024427	514
0	1376	77.217154159777	515
0	1378	77.390618601354	516
0	1380	77.438708478854	517
0	1382	77.502418130521	518
0	1384	77.687407720396	519
0	1386	77.760374048446	520
0	1388	77.945509447864	521
0	1390	78.061142770944	522
0	1392	78.231153358899	523
0	1394	78.478577776992	524
0	1396	78.837252111626	525
0	1397	78.845713145571	524
0	1400	79.021392777682	525
0	1402	79.052123063631	526
0	1404	79.063354224151	527
0	1406	79.270992791688	528
0	1408	79.290913487613	529
0	1410	79.491387220002	530
0	1412	79.697566240005	531
0	1414	79.712881759114	532
0	1416	79.799213288779	533
0	1418	79.808231053254	534
0	1419	79.824827135824	533
0	1422	80.096446297128	534
0	1423	80.260101684565	533
0	1426	80.640657439728	534
0	1428	80.653879724163	535
0	1430	80.733716276707	536
0	1431	81.0588534202	535
0	1434	81.069010047546	536
0	1436	81.129239181431	537
0	1438	81.288123852122	538
0	1440	81.330934249177	539
0	1442	81.383059200805	540
0	1444	81.391830153081	541
0	1446	81.450882906374	542
0	1448	81.57166490777	543
0	1450	81.677215542518	544
0	1452	81.7365350729	545
0	1454	81.906901380836	546
0	1455	81.951207283807	545
0	1458	82.024866566933	546
0	1460	82.055595183915	547
0	1462	82.28755820636	548
0	1464	82.391098170409	549
0	1466	82.412672952976	550
0	1468	82.775418195898	551
0	1470	83.135515397529	552
0	1472	83.433701722654	553
0	1474	83.552534658207	554
0	1476	83.591026142048	555
0	1478	83.653895487766	556
0	1480	83.664931322198	557
0	1482	83.668519877132	558
0	1484	83.706346571732	559
0	1485	83.8059464006	558
0	1488	84.092520891611	559
0	1489	84.093563589986	558
0	1492	84.276607720182	559
0	1493	84.278376581848	558
0	1496	84.285312575435	559
0	1498	84.327382105472	560
0	1500	84.340972653736	561
0	1502	84.435843785489	562
0	1504	84.628118412448	563
0	1506	84.824154390366	564
0	1508	85.037175494063	565
0	1509	85.325178536931	564
0	1512	85.461866648784	565
0	1514	85.514523858385	566
0	1516	85.534752836215	567
0	1518	85.86529273663	568
0	1520	85.963420023484	569
0	1522	86.062916444869	570
0	1524	86.070709260793	571
0	1526	86.081118734921	572
0	1528	86.123593900724	573
0	1530	86.171776370971	574
0	1532	86.327702459827	575
0	1534	86.336589920635	576
0	1536	86.411922277875	577
0	1538	86.524433133486	578
0	1540	86.664078901819	579
0	1542	86.917147095726	580
0	1544	86.953696372022	581
0	1546	87.149538641963	582
0	1548	87.339598157632	583
0	1550	87.362792990313	584
0	1552	87.40007065427	585
0	1554	87.499102662486	586
0	1556	87.874555349571	587
0	1558	87.960885437565	588
0	1559	87.975210786612	587
0	1562	88.121926866525	588
0	1564	88.164989097708	589
0	1566	88.200623480704	590
0	1568	88.235425325575	591
0	1570	88.250466723343	592
0	1572	88.348983161693	593
0	1574	88.638883428804	594
0	1576	88.692806572212	595
0	1578	88.693169062775	596
0	1579	89.156467980281	595
0	1581	89.179865950955	594
0	1584	89.350875160526	595
0	1586	89.523599080081	596
0	1588	89.526601637513	597
0	1589	89.601674779334	596
0	1592	90.000959759084	597
0	1594	90.132616012197	598
0	1595	90.162221158122	597
0	1597	90.454915574301	596
0	1600	90.698450544249	597
0	1602	90.939590471259	598
0	1604	91.140234403012	599
0	1605	91.250322664731	598
0	1608	91.441291719382	599
0	1610	91.461636617138	600
0	1612	91.551472169631	601
0	1614	91.577016197534	602
0	1616	91.581380145687	603
0	1618	91.594010706587	604
0	1620	91.647771466999	605
0	1622	91.671920299642	606
0	1624	91.769889041458	607
0	1626	91.797857691989	608
0	1628	91.826199632568	609
0	1630	91.864087188325	610
0	1631	91.905994123192	609
0	1634	91.954379352501	610
0	1636	92.512808671143	611
0	1638	92.633934543277	612
0	1640	92.86466734573	613
0	1642	93.008340012662	614
0	1644	93.03686795579	615
0	1645	93.041625529331	614
0	1648	93.073374227711	615
0	1650	93.087375670306	616
0	1652	93.116068717509	617
0	1654	93.168515317519	618
0	1655	93.182453722677	617
0	1658	93.283993813807	618
0	1660	93.297845865684	619
0	1662	93.3241960233	620
0	1664	93.347330446562	621
0	1666	93.454371543894	622
0	1667	93.577963574121	621
0	1670	93.764754454623	622
0	1672	93.912467263756	623
0	1674	94.095053069972	624
0	1676	94.11145088289	625
0	1678	94.228676282005	626
0	1680	94.403514665458	627
0	1682	94.445950296955	628
0	1684	94.513086928596	629
0	1686	94.549039755149	630
0	1688	94.590071459108	631
0	1690	94.705450535164	632
0	1692	94.729584552903	633
0	1694	94.809195540235	634
0	1695	94.820830360221	633
0	1698	94.957163592891	634
0	1700	95.073351071728	635
0	1702	95.35389346651	636
0	1704	95.355056652785	637
0	1706	95.410991543042	638
0	1708	95.644023225235	639
0	1710	95.69995309008	640
0	1712	95.758846332844	641
0	1714	95.87826463434	642
0	1716	96.075156336323	643
0	1718	96.365161639461	644
0	1720	96.526148264353	645
0	1722	96.687303385479	646
0	1724	96.799200740908	647
0	1725	96.927273124813	646
0	1727	97.005670849746	645
0	1729	97.25364599308	644
0	1732	97.311519270135	645
0	1734	97.324901173786	646
0	1736	97.514871782353	647
0	1738	97.525863622001	648
0	1740	97.544451632413	649
0	1742	97.546913863912	650
0	1744	97.801301479634	651
0	1746	97.937286820878	652
0	1748	97.959682145079	653
0	1750	98.267815396073	654
0	1752	98.298988869015	655
0	1753	98.637691836109	654
0	1756	98.714890122077	655
0	1758	98.870298839213	656
0	1760	99.220431619667	657
0	1762	99.247350406548	658
0	1764	99.446821773733	659
0	1766	99.547424981702	660
0	1768	99.578199478703	661
0	1770	99.710030122428	662
0	1772	99.779646594507	663
0	1774	100.163072482674	664
0	1776	100.25911972476	665
0	1778	100.319679160892	666
0	1780	100.34539966127	667
0	1782	100.360923322694	668
0	1784	100.434742044971	669
0	1785	100.52009275147	668
0	1788	100.533700214555	669
0	1790	100.641056016253	670
0	1792	100.652089814121	671
0	1794	100.665734785894	672
0	1795	100.757312153022	671
0	1798	101.17122444178	672
0	1800	101.77753197709	673
0	1802	101.780692553916	674
0	1804	101.795590990837	675
0	1806	101.862657007852	676
0	1808	102.004562688176	677
0	1810	102.230811856585	678
0	1812	102.278978032713	679
0	1814	102.364490022569	680
0	1816	102.493165083076	681
0	1817	102.623697469812	680
0	1820	102.776407458696	681
0	1822	102.777211656197	682
0	1824	102.956320079101	683
0	1826	103.404463712203	684
0	1828	103.506145577287	685
0	1830	103.516171412308	686
0	1832	103.519169950087	687
0	1834	103.581510183121	688
0	1836	103.64798968035	689
0	1838	103.935931802698	690
0	1840	104.207882185864	691
0	1842	104.258629768803	692
0	1843	104.324788998099	691
0	1846	104.439043382094	692
0	1848	104.562645581685	693
0	1850	104.568300158846	694
0	1852	104.7140755436	695
0	1854	104.755049029831	696
0	1856	104.999222447047	697
0	1858	105.034784137005	698
0	1860	105.04507313441	699
0	1862	105.070535251553	700
0	1864	105.093422239833	701
0	1866	105.140982154064	702
0	1868	105.187125321422	703
0	1869	105.19059973203	702
0	1872	105.324291979286	703
0	1874	105.565931235139	704
0	1875	105.574481962863	703
0	1878	105.5757623206	704
0	1880	105.630954503689	705
0	1882	105.644077556389	706
0	1884	105.650936044861	707
0	1886	105.777647283404	708
0	1888	105.779413453505	709
0	1890	105.79756624766	710
0	1892	105.814602290906	711
0	1894	105.883023018522	712
0	1896	106.050526759424	713
0	1898	106.055977230989	714
0	1900	106.382562082905	715
0	1902	106.424105294659	716
0	1904	106.570206492397	717
0	1906	106.580644078382	718
0	1908	106.604255699524	719
0	1910	106.637634906549	720
0	1912	106.828500357799	721
0	1914	106.928844059747	722
0	1916	106.941966281636	723
0	1918	106.960753432081	724
0	1920	107.185994598146	725
0	1922	107.48329763852	726
0	1924	107.531965630437	727
0	1926	107.62777332014	728
0	1928	107.720140616971	729
0	1930	107.976317644243	730
0	1932	107.976895383404	731
0	1934	108.250251991231	732
0	1936	108.341053552323	733
0	1938	108.471218585667	734
0	1940	108.534969476474	735
0	1942	108.603120419948	736
0	1944	109.064084827699	737
0	1946	109.077950708724	738
0	1947	109.18163665225	737
0	1950	109.423650057402	738
0	1952	109.500264174494	739
0	1953	109.826077438444	738
0	1956	109.857069751121	739
0	1958	109.925374180967	740
0	1960	109.943801578995	741
0	1962	109.982665852541	742
0	1964	110.053227523895	743
0	1965	110.054687678959	742
0	1968	110.281648636287	743
0	1970	110.315349040483	744
0	1972	110.411108157751	745
0	1974	110.509770148388	746
0	1975	110.525358567249	745
0	1978	110.526563333238	746
0	1980	110.597528570265	747
0	1982	110.61632621465	748
0	1984	110.851561966389	749
0	1986	110.902242372182	750
0	1988	111.074011200882	751
0	1990	111.188413953953	752
0	1992	111.272466380204	753
0	1994	111.340940367164	754
0	1996	111.516619623208	755
0	1998	111.671520690488	756
0	1999	111.689191640165	755
0	2001	111.699535565353	754
0	2004	111.818415001088	755
0	2006	111.848619997531	756
0	2008	111.851851308715	757
0	2010	111.872172916275	758
0	2012	111.936018070009	759
0	2014	112.124656358189	760
0	2016	112.235537733596	761
0	2018	112.240069579781	762
0	2020	112.697043238943	763
0	2022	112.793246112261	764
0	2024	112.96578589802	765
0	2025	113.024519307547	764
0	2027	113.167559169238	763
0	2030	113.847579853204	764
0	2032	114.023870190027	765
0	2034	114.042385992394	766
0	2036	114.072984758518	767
0	2037	114.170957848954	766
0	2040	114.199778951181	767
0	2042	114.275370357868	768
0	2044	114.310936102806	769
0	2046	114.416482576471	770
0	2048	114.552060466008	771
0	2050	114.755656607946	772
0	2052	114.867622526453	773
0	2054	115.128217108011	774
0	2056	115.526052641089	775
0	2058	115.60618836136	776
0	2060	115.712772048393	777
0	2062	115.729135270461	778
0	2064	115.765524097946	779
0	2066	115.81585128076	780
0	2067	115.944009657987	779
0	2070	115.969848978839	780
0	2072	116.292846573495	781
0	2074	116.441435140979	782
0	2076	116.531290670601	783
0	2078	116.680135385171	784
0	2080	116.886497816616	785
0	2082	116.913929411028	786
0	2084	116.921241856995	787
0	2086	117.060476196945	788
0	2087	117.112610730031	787
0	2090	117.22089834597	788
0	2092	117.319450760224	789
0	2093	117.396254755875	788
0	2096	117.403815765539	789
0	2098	117.444158410995	790
0	2099	117.523125851849	789
0	2101	117.574395731069	788
0	2104	117.830511108649	789
0	2105	118.12255374086	788
0	2108	118.240744892609	789
0	2109	118.422616745398	788
0	2112	118.603957872466	789
0	2114	118.624968308609	790
0	2116	118.656566368962	791
0	2118	118.665640283593	792
0	2120	118.668929418684	793
0	2122	118.780832139641	794
0	2123	118.852742934158	793
0	2126	119.060261031361	794
0	2128	119.133093082051	795
0	2130	119.269004841558	796
0	2132	119.465815088431	797
0	2134	119.590359006777	798
0	2136	119.786007752929	799
0	2137	119.927354967694	798
0	2140	119.980372809531	799
0	2142	120.110256990202	800
0	2144	120.225255498178	801
0	2146	120.226111269373	802
0	2148	120.404353754117	803
0	2150	120.458282980569	804
0	2152	120.674072012251	805
0	2154	121.271448959652	806
0	2155	121.284748676158	805
0	2158	121.399623244544	806
0	2160	121.482997158585	807
0	2162	121.571555432011	808
0	2163	121.701799700944	807
0	2166	121.876983065189	808
0	2167	121.899321045748	807
0	2169	121.940395290294	806
0	2171	122.012466260644	805
0	2174	122.087184377837	806
0	2176	122.210924367331	807
0	2178	122.236671023	808
0	2179	122.342272423293	807
0	2182	122.4099123583	808
0	2184	122.711373218087	809
0	2186	122.826594689596	810
0	2188	122.899665572693	811
0	2189	123.117773165909	810
0	2192	123.469071598872	811
0	2194	123.788364453692	812
0	2196	123.928362565168	813
0	2198	123.998054174413	814
0	2200	124.020847374937	815
0	2202	124.072607179323	816
0	2204	124.326109987557	817
0	2206	124.531435670026	818
0	2208	124.535875634591	819
0	2210	124.569118774829	820
0	2212	124.581638153736	821
0	2214	124.77205973879	822
0	2216	124.815504579135	823
0	2218	125.303808067481	824
0	2220	125.3516124888	825
0	2222	125.381652957146	826
0	2224	125.513117780214	827
0	2226	125.641659225361	828
0	2228	125.821993892944	829
0	2230	125.844905509143	830
0	2231	126.00210111256	829
0	2233	126.034503659334	828
0	2236	126.138508194792	829
0	2238	126.367187150518	830
0	2240	126.444608135086	831
0	2242	126.696391295619	832
0	2244	126.727820986402	833
0	2246	126.874743275687	834
0	2247	127.063919500541	833
0	2250	127.14696279138	834
0	2252	127.343598742009	835
0	2254	127.346517893788	836
0	2256	127.390496631553	837
0	2258	127.433885698232	838
0	2260	127.508758675428	839
0	2262	127.763925255191	840
0	2264	127.791362454929	841
0	2266	127.898249737618	842
0	2268	128.069436565019	843
0	2270	128.110819255486	844
0	2272	128.188390102067	845
0	2274	128.201422363501	846
0	2276	128.226596156246	847
0	2278	128.229665361409	848
0	2280	128.378918850555	849
0	2282	128.509868645846	850
0	2284	128.572722090229	851
0	2286	128.586415783761	852
0	2288	128.593503149628	853
0	2290	128.782424823925	854
0	2292	128.983632687874	855
0	2294	129.036829216932	856
0	2296	129.264875099795	857
0	2298	129.467129993421	858
0	2300	129.703881643148	859
0	2301	129.883466041133	858
0	2304	129.959941144252	859
0	2306	129.995285263861	860
0	2308	130.018977684088	861
0	2310	130.044541866625	862
0	2312	130.097629478564	863
0	2314	130.10304112752	864
0	2316	130.198705629331	865
0	2318	130.335878080805	866
0	2320	130.600537435003	867
0	2322	130.616983069905	868
0	2324	130.811283792855	869
0	2326	130.825660367983	870
0	2328	131.009460412161	871
0	2330	131.216570917934	872
0	2332	131.348151366237	873
0	2334	131.62266297447	874
0	2336	131.684931761469	875
0	2337	131.992381978216	874
0	2340	132.167852307146	875
0	2342	132.271805087978	876
0	2344	132.329329629895	877
0	2346	132.600618251521	878
0	2348	132.693890018377	879
0	2349	133.151547755784	878
0	2352	133.156104924702	879
0	2354	133.28833720566	880
0	2356	133.32082218468	881
0	2358	133.357219727431	882
0	2360	133.399233387439	883
0	2362	133.429447971803	884
0	2364	133.450207184325	885
0	2366	133.502863969128	886
0	2368	133.536996982776	887
0	2370	133.639026857719	888
0	2372	133.801986576805	889
0	2374	133.84311646731	890
0	2376	134.101095264189	891
0	2378	134.123602504603	892
0	2379	134.205685081236	891
0	2382	134.401249888871	892
0	2384	134.507324466122	893
0	2385	134.563057936254	892
0	2388	134.582094060184	893
0	2390	134.689177751069	894
0	2392	134.690744448425	895
0	2394	134.704674365732	896
0	2395	134.72055347965	895
0	2398	134.779766703217	896
0	2400	134.782273935481	897
0	2402	134.902686218045	898
0	2404	134.92323642258	899
0	2406	134.927425043056	900
0	2408	134.949098865639	901
0	2410	135.043934139973	902
0	2412	135.162708201929	903
0	2414	135.403591519549	904
0	2416	135.493167903727	905
0	2418	135.609054559437	906
0	2420	135.655382710791	907
0	2422	135.674486027326	908
0	2424	135.722591774411	909
0	2426	135.852355103536	910
0	2428	135.852804309155	911
0	2429	136.152953990164	910
0	2432	136.199305333383	911
0	2434	136.226513646916	912
0	2436	136.438893982514	913
0	2438	136.45770505419	914
0	2440	136.553884153891	915
0	2442	136.975218399307	916
0	2444	137.119120705709	917
0	2446	137.134457643551	918
0	2448	137.163321819711	919
0	2450	137.171836104345	920
0	2452	137.233371196999	921
0	2454	137.384888310908	922
0	2456	137.439091441964	923
0	2458	137.642082707566	924
0	2460	137.912124438136	925
0	2462	138.160434984663	926
0	2464	138.213011253434	927
0	2466	138.298707622157	928
0	2468	138.3388340139	929
0	2470	138.511154629803	930
0	2472	138.553766623761	931
0	2474	138.622841045116	932
0	2476	138.683798299798	933
0	2477	139.031383469257	932
0	2480	139.067660599659	933
0	2482	139.267329301011	934
0	2483	139.582854369634	933
0	2486	139.759931066086	934
0	2488	139.904857783881	935
0	2490	139.990776461275	936
0	2492	140.302582767559	937
0	2493	140.387455632046	936
0	2496	140.406025745648	937
0	2498	140.425238801069	938
0	2500	140.456847848782	939
0	2502	140.571620611002	940
0	2504	140.763679565732	941
0	2506	140.795553952757	942
0	2508	141.372835953814	943
0	2510	141.435515385142	944
0	2512	141.655788275222	945
0	2514	141.729574756898	946
0	2516	141.747596584843	947
0	2518	141.810604888107	948
0	2520	141.819036202069	949
0	2521	141.908667091329	948
0	2523	142.064957998217	947
0	2526	142.223745557808	948
0	2528	142.41341207547	949
0	2530	142.85773861188	950
0	2532	142.8695264037	951
0	2533	142.9571095534	950
0	2536	143.053501560156	951
0	2538	143.252595862726	952
0	2540	143.283744350587	953
0	2542	143.400772873733	954
0	2543	143.414507062048	953
0	2546	143.636055111837	954
0	2548	143.80508975464	955
0	2549	143.911040313379	954
0	2552	143.930203469979	955
0	2554	143.947610499328	956
0	2556	144.148456734298	957
0	2557	144.180435857556	956
0	2559	144.210920527274	955
0	2562	144.308648156701	956
0	2564	144.349780216645	957
0	2566	144.400948891492	958
0	2568	144.533267655586	959
0	2569	144.606089814303	958
0	2571	144.620906769889	957
0	2574	145.085447775452	958
0	2576	145.094728171429	959
0	2578	145.162082525054	960
0	2580	145.185436986744	961
0	2582	145.226150642634	962
0	2584	145.320833462417	963
0	2586	145.417484572463	964
0	2588	145.555377480876	965
0	2590	145.98531365545	966
0	2592	146.07480901568	967
0	2594	146.094085533047	968
0	2596	146.183839881041	969
0	2598	146.287515388392	970
0	2600	146.342479494479	971
0	2602	146.431503530216	972
0	2604	146.512570160073	973
0	2606	146.629839916494	974
0	2608	146.691042010372	975
0	2610	146.712452293558	976
0	2612	146.836273806771	977
0	2613	147.005176205896	976
0	2616	147.304927209595	977
0	2618	147.454772944201	978
0	2620	147.57261411537	979
0	2622	147.613119113215	980
0	2624	147.632690001845	981
0	2626	147.648060788355	982
0	2628	147.685866770048	983
0	2630	147.715214695973	984
0	2632	147.77263023594	985
0	2634	147.998501339031	986
0	2636	148.085317275925	987
0	2638	148.155640169823	988
0	2640	148.180603675281	989
0	2642	148.27705372941	990
0	2644	148.602761990972	991
0	2646	148.743341215237	992
0	2648	149.257371265012	993
0	2650	149.259502951044	994
0	2652	149.284395837935	995
0	2654	149.398416900167	996
0	2656	149.436403133475	997
0	2657	149.620503849186	996
0	2660	149.707996236011	997
0	2662	149.839464543095	998
0	2664	149.849771045243	999
0	2666	149.875724878182	1000
0	2668	150.198263493518	1001
0	2670	150.311240435232	1002
0	2672	150.446641615226	1003
0	2674	150.531657970278	1004
0	2676	150.735780926039	1005
0	2678	150.785343490895	1006
0	2680	150.804219186433	1007
0	2682	150.937346141644	1008
0	2684	151.073212984449	1009
0	2686	151.424257945405	1010
0	2687	151.453168617731	1009
0	2690	151.476810309049	1010
0	2692	151.792491474644	1011
0	2694	151.880038800974	1012
0	2696	151.928988205806	1013
0	2697	151.998059021207	1012
0	2700	152.092665388788	1013
0	2702	152.26819023296	1014
0	2704	152.326709528359	1015
0	2705	152.354068061563	1014
0	2707	152.592509505437	1013
0	2710	152.890565867322	1014
0	2712	152.931287031498	1015
0	2714	152.972589753745	1016
0	2716	153.057943003272	1017
0	2717	153.450319789876	1016
0	2719	153.5137715434	1015
0	2722	153.584370610184	1016
0	2723	153.64019968866	1015
0	2725	153.651098009215	1014
0	2728	153.686740214072	1015
0	2730	153.837073284052	1016
0	2732	153.842989814589	1017
0	2734	153.965170610119	1018
0	2736	154.290340993295	1019
0	2738	154.290365222013	1020
0	2740	154.398550587482	1021
0	2742	154.451556590925	1022
0	2743	154.518331435875	1021
0	2746	154.707117981571	1022
0	2748	154.709964715877	1023
0	2750	154.756445010583	1024
0	2752	154.864008985965	1025
0	2754	154.957278688328	1026
0	2756	155.167254043964	1027
0	2758	155.287022273186	1028
0	2760	155.308029744721	1029
0	2762	155.449908314915	1030
0	2764	155.578398912377	1031
0	2766	155.629982122094	1032
0	2768	155.697056962399	1033
0	2770	155.924762485966	1034
0	2772	156.070963127224	1035
0	2774	156.080588273383	1036
0	2776	156.113818919922	1037
0	2778	156.117586682546	1038
0	2780	156.160794500953	1039
0	2782	156.372838505919	1040
0	2784	156.404251021917	1041
0	2786	156.772443394659	1042
0	2788	156.774402877005	1043
0	2790	156.79168571224	1044
0	2792	157.489136992392	1045
0	2794	157.685991772066	1046
0	2796	157.686268487886	1047
0	2798	157.696196063825	1048
0	2799	157.811937342491	1047
0	2802	157.839895026447	1048
0	2804	157.850386326727	1049
0	2806	157.982669935414	1050
0	2808	158.00133650063	1051
0	2810	158.051079421691	1052
0	2812	158.219301120903	1053
0	2814	158.234603882992	1054
0	2815	158.285365058675	1053
0	2818	158.824638701901	1054
0	2820	158.955112963895	1055
0	2822	159.015039201495	1056
0	2824	159.097437682354	1057
0	2826	159.107091161967	1058
0	2828	159.117960240827	1059
0	2829	159.201760879601	1058
0	2832	159.265350035408	1059
0	2834	159.498553956984	1060
0	2836	159.508712463717	1061
0	2838	159.587182722967	1062
0	2840	159.674849895739	1063
0	2841	159.808309979398	1062
0	2844	159.80838479469	1063
0	2846	159.897672953659	1064
0	2848	160.009839179883	1065
0	2850	160.090511196032	1066
0	2852	160.090605371361	1067
0	2854	160.198910992794	1068
0	2856	160.215963866868	1069
0	2858	160.282786989301	1070
0	2860	160.300543448631	1071
0	2862	160.346844721703	1072
0	2864	160.669979531645	1073
0	2865	161.184354963039	1072
0	2868	161.190064257848	1073
0	2870	161.605594514764	1074
0	2872	161.61604832875	1075
0	2874	161.663695665221	1076
0	2876	162.092271107314	1077
0	2877	162.161937943081	1076
0	2879	162.416139983844	1075
0	2882	162.491517748616	1076
0	2884	162.584263213985	1077
0	2886	162.621283985877	1078
0	2888	162.631412240694	1079
0	2890	162.707581429242	1080
0	2891	162.912761893318	1079
0	2894	162.926372189599	1080
0	2896	162.984857425874	1081
0	2898	163.41474238177	1082
0	2899	163.640843618937	1081
0	2901	163.945355125766	1080
0	2904	164.115148548951	1081
0	2905	164.347781038104	1080
0	2908	164.424506803168	1081
0	2910	164.480901822722	1082
0	2912	164.509445360623	1083
0	2914	164.632249305549	1084
0	2916	165.209293255799	1085
0	2918	165.513994253483	1086
0	2920	165.54490189394	1087
0	2922	165.635602992884	1088
0	2924	165.653149653634	1089
0	2926	165.694381796066	1090
0	2928	165.74469076065	1091
0	2930	165.759739967875	1092
0	2931	165.866277497986	1091
0	2934	165.919090669482	1092
0	2936	165.996671650404	1093
0	2938	166.040239668883	1094
0	2940	166.073975297712	1095
0	2942	166.161712697704	1096
0	2944	166.164453927952	1097
0	2946	166.218237471106	1098
0	2948	166.31000847972	1099
0	2950	166.5774890116	1100
0	2952	166.756050655094	1101
0	2954	166.810977829786	1102
0	2956	166.885464207753	1103
0	2958	167.035806444235	1104
0	2960	167.128411023121	1105
0	2962	167.159680906923	1106
0	2964	167.356642830134	1107
0	2966	167.41487180576	1108
0	2968	167.422043179511	1109
0	2970	167.763684183673	1110
0	2972	167.949919050909	1111
0	2974	168.28413680811	1112
0	2976	168.366742716327	1113
0	2978	168.691467632589	1114
0	2980	168.716613800834	1115
0	2982	168.757389650762	1116
0	2983	168.991847633298	1115
0	2986	169.169329793631	1116
0	2988	169.219450105989	1117
0	2990	169.252661691865	1118
0	2991	169.308438280185	1117
0	2994	169.339957228122	1118
0	2996	169.57614566514	1119
0	2998	169.654074946167	1120
0	3000	169.667140138559	1121
0	3002	169.906184388352	1122
0	3004	170.157863961302	1123
0	3006	170.196253442918	1124
0	3008	170.215357322347	1125
0	3010	170.290212928649	1126
0	3012	170.324157927069	1127
0	3014	170.340235694988	1128
0	3016	170.580341582766	1129
0	3018	170.812338750234	1130
0	3020	170.894793259631	1131
0	3022	170.979970821336	1132
0	3024	171.019411312848	1133
0	3026	171.04033364906	1134
0	3028	171.07400025049	1135
0	3030	171.166016727019	1136
0	3032	171.387268322759	1137
0	3034	171.652049498861	1138
0	3036	171.81008108442	1139
0	3038	171.893370931199	1140
0	3040	171.925794486424	1141
0	3042	172.010862811543	1142
0	3044	172.064045367812	1143
0	3046	172.089575871833	1144
0	3048	172.305537029566	1145
0	3050	172.380587318368	1146
0	3052	172.459900639519	1147
0	3054	172.546572792457	1148
0	3056	172.683812273143	1149
0	3058	172.822660220366	1150
0	3060	173.087942518664	1151
0	3062	173.102688078656	1152
0	3064	173.113668717725	1153
0	3066	173.148842055847	1154
0	3068	173.197253256473	1155
0	3070	173.366634764897	1156
0	3072	173.472965583646	1157
0	3074	173.561248234894	1158
0	3075	173.655186503357	1157
0	3078	173.664112921073	1158
0	3080	173.664328086442	1159
0	3082	173.668795463096	1160
0	3084	173.782572837529	1161
0	3085	173.913404689202	1160
0	3087	174.014154776231	1159
0	3090	174.098011884078	1160
0	3092	174.155755606032	1161
0	3094	174.163031442981	1162
0	3096	174.298394776705	1163
0	3098	174.488388729564	1164
0	3100	174.530482513973	1165
0	3102	174.571587915376	1166
0	3104	174.621582701402	1167
0	3106	174.802768763509	1168
0	3108	174.858442692502	1169
0	3110	174.876029162904	1170
0	3112	175.250134453015	1171
0	3114	175.292719816875	1172
0	3116	175.472832200312	1173
0	3118	176.069888264496	1174
0	3120	176.161756838374	1175
0	3122	176.517954407562	1176
0	3124	176.527706366779	1177
0	3125	176.727626221198	1176
0	3128	176.800154047298	1177
0	3130	176.949349707155	1178
0	3132	176.974232167473	1179
0	3133	177.01387531187	1178
0	3136	177.254810477028	1179
0	3138	177.319249224542	1180
0	3139	177.442739550745	1179
0	3142	177.460405762656	1180
0	3143	177.86472989081	1179
0	3146	177.935184652674	1180
0	3148	177.942050450165	1181
0	3150	178.124086755415	1182
0	3152	178.247614153275	1183
0	3154	178.269419065025	1184
0	3156	178.289425176147	1185
0	3158	178.303489528842	1186
0	3160	178.472785573569	1187
0	3162	178.570612384623	1188
0	3164	178.700056162458	1189
0	3166	178.88866260667	1190
0	3168	179.05924850246	1191
0	3169	179.108043062673	1190
0	3172	179.120385663187	1191
0	3173	179.277751314499	1190
0	3176	179.278911801351	1191
0	3178	179.293737420752	1192
0	3180	179.312980858505	1193
0	3182	179.56048701918	1194
0	3183	179.604522270665	1193
0	3186	179.64839232112	1194
0	3188	179.69549011124	1195
0	3190	179.813194571017	1196
0	3192	180.106640231145	1197
0	3194	180.246204783619	1198
0	3196	180.2565240033	1199
0	3198	180.297120552585	1200
0	3200	180.420451320115	1201
0	3202	180.589210955905	1202
0	3204	180.678133018155	1203
0	3206	180.687166893624	1204
0	3208	180.808005901169	1205
0	3210	181.157022548556	1206
0	3212	181.319712512164	1207
0	3214	181.368740468158	1208
0	3216	181.381990150329	1209
0	3218	181.446515597195	1210
0	3220	181.498898539952	1211
0	3222	181.520111279569	1212
0	3224	181.62858361447	1213
0	3226	181.7216356219	1214
0	3228	182.098442170559	1215
0	3230	182.163966021794	1216
0	3231	182.176205083699	1215
0	3234	182.474169409884	1216
0	3236	182.783014224109	1217
0	3238	182.808121601794	1218
0	3240	182.82762745905	1219
0	3242	182.854444263909	1220
0	3244	182.92565563568	1221
0	3246	182.939446761398	1222
0	3247	183.080809167414	1221
0	3250	183.530057482418	1222
0	3252	183.552983796715	1223
0	3254	183.974232897974	1224
0	3255	184.331231823668	1223
0	3258	184.532783927421	1224
0	3260	184.545544890273	1225
0	3262	184.572479080794	1226
0	3264	184.688250961749	1227
0	3266	184.941326341083	1228
0	3268	184.990571473012	1229
0	3270	185.069861932688	1230
0	3272	185.286698977576	1231
0	3273	185.413533433906	1230
0	3276	185.498223053078	1231
0	3278	185.743097144372	1232
0	3280	186.030473602358	1233
0	3282	186.159119538893	1234
0	3284	186.243988530284	1235
0	3286	186.335679832702	1236
0	3288	186.8895525625	1237
0	3290	186.987207653222	1238
0	3292	187.123315030605	1239
0	3294	187.133932945556	1240
0	3296	187.207752222635	1241
0	3298	187.31855833498	1242
0	3300	187.330953854004	1243
0	3302	187.456327538789	1244
0	3304	187.530711308054	1245
0	3306	187.554074292841	1246
0	3308	187.577926644959	1247
0	3310	187.795844945108	1248
0	3312	187.909639855229	1249
0	3314	187.921755406891	1250
0	3316	187.923285912693	1251
0	3318	187.943071885064	1252
0	3320	188.110998839859	1253
0	3322	188.208985583289	1254
0	3324	188.33211670715	1255
0	3326	188.374872065905	1256
0	3328	188.508358623863	1257
0	3330	188.510027836267	1258
0	3331	188.510383076733	1257
0	3334	188.513605386721	1258
0	3336	188.574046674381	1259
0	3337	188.57653881641	1258
0	3339	188.888328811155	1257
0	3341	189.014999451041	1256
0	3344	189.040837606627	1257
0	3346	189.149076140416	1258
0	3348	189.401275918028	1259
0	3350	189.45962119392	1260
0	3352	189.602603322805	1261
0	3354	189.921531836858	1262
0	3356	190.202192337187	1263
0	3358	190.293700755474	1264
0	3360	190.340774734646	1265
0	3362	190.392111395538	1266
0	3364	190.403660086005	1267
0	3366	190.553305752712	1268
0	3368	190.603522578234	1269
0	3370	190.653247708962	1270
0	3372	190.733005340462	1271
0	3374	190.80940744436	1272
0	3376	190.830365683363	1273
0	3378	190.8493276963	1274
0	3380	190.898604412044	1275
0	3382	191.03255619885	1276
0	3383	191.046728562722	1275
0	3386	191.219111315848	1276
0	3388	191.25836222861	1277
0	3390	191.329261641116	1278
0	3392	191.40511258183	1279
0	3394	191.526959449045	1280
0	3396	191.612372331534	1281
0	3398	191.763481358313	1282
0	3400	191.949604783628	1283
0	3402	192.730684960806	1284
0	3404	192.818018163753	1285
0	3406	192.924287127264	1286
0	3408	193.119742207751	1287
0	3410	193.19933960208	1288
0	3412	193.239641619402	1289
0	3414	193.68973981889	1290
0	3416	193.75451147755	1291
0	3418	193.94933947568	1292
0	3419	194.138789615952	1291
0	3422	194.161292171247	1292
0	3424	194.235482297304	1293
0	3426	194.264765637875	1294
0	3428	194.324283517294	1295
0	3430	194.360854956134	1296
0	3432	194.370951063534	1297
0	3434	194.433761459731	1298
0	3436	194.84801392109	1299
0	3437	194.851237801095	1298
0	3440	195.047553825903	1299
0	3442	195.119671284135	1300
0	3444	195.514911590046	1301
0	3445	195.574060895824	1300
0	3448	195.872525489458	1301
0	3450	196.020289598835	1302
0	3452	196.02062464079	1303
0	3454	196.041237461678	1304
0	3456	196.086332694131	1305
0	3457	196.208515285062	1304
0	3460	196.210473677789	1305
0	3462	196.263909100151	1306
0	3464	196.276551669855	1307
0	3466	196.588294556159	1308
0	3468	196.853153286055	1309
0	3469	196.87845572032	1308
0	3472	196.8818160904	1309
0	3474	196.90527749869	1310
0	3476	196.969038211117	1311
0	3478	197.09063886766	1312
0	3480	197.129168782033	1313
0	3482	197.17790208273	1314
0	3483	197.2436094298	1313
0	3486	197.769365636289	1314
0	3488	197.850417976975	1315
0	3490	197.869752074525	1316
0	3492	197.91523731846	1317
0	3494	198.005996355881	1318
0	3496	198.328852125121	1319
0	3498	198.361633823247	1320
0	3500	198.832143543486	1321
0	3502	198.931319066729	1322
0	3504	199.124047084821	1323
0	3506	199.25117143293	1324
0	3508	199.352203306534	1325
0	3510	199.425191710972	1326
0	3511	199.564811247507	1325
0	3514	199.568222174649	1326
0	3516	199.642041686484	1327
0	3518	199.757484512042	1328
0	3520	199.791370070482	1329
0	3522	199.9744892811	1330
0	3524	200.084630157839	1331
0	3525	200.096562945871	1330
0	3528	200.175200883917	1331
0	3530	200.197754679498	1332
0	3532	200.216050068171	1333
0	3534	200.280112757467	1334
0	3536	200.530744728712	1335
0	3538	200.656302172282	1336
0	3540	200.737282447558	1337
0	3542	200.822533445806	1338
0	3544	200.955629751031	1339
0	3545	200.973053678203	1338
0	3548	200.981077936235	1339
0	3550	201.215767732547	1340
0	3552	201.517012042692	1341
0	3554	201.560321478972	1342
0	3556	201.628909200246	1343
0	3558	201.674475614877	1344
0	3560	201.772156177782	1345
0	3562	201.778260233741	1346
0	3564	201.975422966175	1347
0	3565	201.988038068419	1346
0	3568	202.017638708787	1347
0	3570	202.168664293323	1348
0	3572	202.279400397787	1349
0	3574	202.303885523114	1350
0	3576	202.519843427463	1351
0	3577	202.694139095645	1350
0	3580	202.852200507783	1351
0	3581	202.993173656866	1350
0	3583	203.077553505715	1349
0	3586	203.139610508509	1350
0	3588	203.214617733265	1351
0	3590	203.222959735628	1352
0	3592	203.318766624697	1353
0	3594	203.321985673734	1354
0	3596	203.446599072635	1355
0	3597	203.455084896837	1354
0	3600	203.46659477446	1355
0	3602	203.556301238169	1356
0	3603	203.565751207036	1355
0	3606	204.015716546056	1356
0	3608	204.092020688968	1357
0	3610	204.162344678077	1358
0	3612	204.166337766706	1359
0	3614	204.280008324369	1360
0	3615	204.340394443799	1359
0	3618	204.360561422857	1360
0	3620	204.408908812991	1361
0	3622	204.423664853164	1362
0	3624	204.56029002346	1363
0	3626	204.636730537416	1364
0	3628	204.739600277591	1365
0	3630	204.84913492688	1366
0	3632	205.010951318423	1367
0	3634	205.017004310877	1368
0	3636	205.072706934829	1369
0	3638	205.175491415597	1370
0	3640	205.227385424578	1371
0	3641	205.343544346498	1370
0	3643	205.345980533619	1369
0	3646	205.374129350836	1370
0	3648	205.384467374239	1371
0	3650	205.408214465511	1372
0	3652	205.46779890337	1373
0	3654	205.476302171999	1374
0	3656	205.495204385451	1375
0	3658	205.574539090321	1376
0	3660	205.610485987416	1377
0	3662	205.85321458888	1378
0	3664	206.071785582345	1379
0	3666	206.27320010585	1380
0	3667	206.283640551958	1379
0	3670	206.424182173246	1380
0	3672	206.447657283422	1381
0	3674	206.72042917595	1382
0	3676	206.793988302755	1383
0	3678	206.958472105485	1384
0	3680	207.021949826303	1385
0	3682	207.190998436542	1386
0	3684	207.263916609	1387
0	3686	207.342829300981	1388
0	3688	207.364050291069	1389
0	3690	207.458864215502	1390
0	3692	207.460840741376	1391
0	3694	207.469424517847	1392
0	3696	207.532139247755	1393
0	3698	207.635353026244	1394
0	3700	207.832680238551	1395
0	3702	208.066150909308	1396
0	3704	208.10878918707	1397
0	3706	208.185570126892	1398
0	3708	208.386325322566	1399
0	3710	208.603120229949	1400
0	3712	208.765862302869	1401
0	3714	208.779753869707	1402
0	3716	208.837397424456	1403
0	3718	208.979972421704	1404
0	3720	209.105713941826	1405
0	3722	209.109610486393	1406
0	3724	209.127490487435	1407
0	3726	209.179293938338	1408
0	3727	209.245224499192	1407
0	3729	209.260538560549	1406
0	3732	209.412911350123	1407
0	3734	209.490012496505	1408
0	3736	209.569423470312	1409
0	3738	209.595839532966	1410
0	3740	210.3710367271	1411
0	3742	210.388844790464	1412
0	3744	210.501246740424	1413
0	3746	210.717877926027	1414
0	3747	210.772792720622	1413
0	3750	210.775963110334	1414
0	3752	210.834369118598	1415
0	3753	210.864864323531	1414
0	3756	210.965653693128	1415
0	3758	211.205946018699	1416
0	3760	211.37486303038	1417
0	3761	211.389978478606	1416
0	3764	211.718176447424	1417
0	3766	211.874332608398	1418
0	3768	211.882229001429	1419
0	3769	212.268641299278	1418
0	3772	212.310403521994	1419
0	3774	212.566247175471	1420
0	3776	212.57720075136	1421
0	3778	212.877056857401	1422
0	3780	213.046944981436	1423
0	3782	213.086430361814	1424
0	3784	213.172854151871	1425
0	3786	213.185489641111	1426
0	3788	213.74238075485	1427
0	3790	213.881608586165	1428
0	3792	214.038609641137	1429
0	3793	214.117288534755	1428
0	3796	214.219485540698	1429
0	3798	214.249472561027	1430
0	3800	214.448515299448	1431
0	3802	214.638617418263	1432
0	3804	214.903830810294	1433
0	3806	214.944409109078	1434
0	3808	215.02770764636	1435
0	3810	215.161385784839	1436
0	3812	215.412718071937	1437
0	3814	215.534299911179	1438
0	3816	215.781041015801	1439
0	3818	216.0398477327	1440
0	3819	216.417254479753	1439
0	3822	216.504423402137	1440
0	3824	216.665896837063	1441
0	3826	216.707239674289	1442
0	3828	216.962704467106	1443
0	3830	216.977920923986	1444
0	3832	217.109836569655	1445
0	3834	217.123903086063	1446
0	3836	217.165554694373	1447
0	3838	217.178209805598	1448
0	3840	217.17963744959	1449
0	3842	217.312029689439	1450
0	3844	217.384166219174	1451
0	3846	217.395361893639	1452
0	3848	217.530135693115	1453
0	3850	217.546067712033	1454
0	3852	217.774628003093	1455
0	3854	217.789440031691	1456
0	3856	217.833422764269	1457
0	3857	218.011472467141	1456
0	3860	218.168210740908	1457
0	3861	218.184358485675	1456
0	3864	218.215249518974	1457
0	3866	218.306392610445	1458
0	3868	218.306758769893	1459
0	3870	218.372665331239	1460
0	3872	218.391744779904	1461
0	3874	218.429273530531	1462
0	3876	218.596564093942	1463
0	3878	218.670634908334	1464
0	3880	218.794977866429	1465
0	3882	218.842116279795	1466
0	3884	218.910720548628	1467
0	3886	218.913785636011	1468
0	3888	218.985825969915	1469
0	3890	219.301108227806	1470
0	3892	219.44726082783	1471
0	3894	219.490828963669	1472
0	3896	219.913745161544	1473
0	3898	220.104649052853	1474
0	3900	220.192144437897	1475
0	3902	220.282628935293	1476
0	3904	220.3199128266	1477
0	3906	220.399231868812	1478
0	3908	220.479467084158	1479
0	3910	220.560540161861	1480
0	3912	220.7016071862	1481
0	3914	220.835434269066	1482
0	3916	220.893437986048	1483
0	3917	220.919936916796	1482
0	3920	221.02929943476	1483
0	3922	221.141516507212	1484
0	3924	221.146656241806	1485
0	3926	221.149477034109	1486
0	3928	221.43053250049	1487
0	3930	221.83476747293	1488
0	3932	221.917344881918	1489
0	3934	221.931370835598	1490
0	3936	222.392123114993	1491
0	3938	222.46616178327	1492
0	3940	222.498235025368	1493
0	3942	222.668420193683	1494
0	3944	222.679335706702	1495
0	3946	222.731345363357	1496
0	3948	222.82563659698	1497
0	3950	222.846149311281	1498
0	3952	222.858401245229	1499
0	3953	222.876746533217	1498
0	3956	222.917781501264	1499
0	3958	223.000742098731	1500
0	3960	223.123600882773	1501
0	3962	223.126590602997	1502
0	3964	223.128975917741	1503
0	3966	223.14093178498	1504
0	3968	223.235234560169	1505
0	3969	223.40891904023	1504
0	3972	223.538542296576	1505
0	3973	223.566084057062	1504
0	3976	223.57726312765	1505
0	3978	223.668330748562	1506
0	3980	223.908935298097	1507
0	3982	224.011226675536	1508
0	3984	224.081028926292	1509
0	3986	224.089310204727	1510
0	3988	224.091008924492	1511
0	3990	224.307849274463	1512
0	3992	224.312352913427	1513
0	3994	224.376589410672	1514
0	3995	224.539975753098	1513
0	3998	224.555962200014	1514
0	4000	224.62100237284	1515
0	4002	224.805351133432	1516
0	4004	224.818539710788	1517
0	4006	224.874051515722	1518
0	4007	225.062236382283	1517
0	4010	225.100826214897	1518
0	4012	225.105110545188	1519
0	4014	225.120278883555	1520
0	4016	225.164142997866	1521
0	4018	225.188335882832	1522
0	4020	225.248487556135	1523
0	4022	225.307774153875	1524
0	4023	225.318034151459	1523
0	4025	225.374755251291	1522
0	4028	225.455850519767	1523
0	4030	225.544793700008	1524
0	4032	225.816169225227	1525
0	4034	225.990737884312	1526
0	4036	226.143778317558	1527
0	4038	226.349956371384	1528
0	4040	226.417390009342	1529
0	4042	226.511365395041	1530
0	4044	226.513981724022	1531
0	4046	226.559705263277	1532
0	4048	226.664859172797	1533
0	4050	226.789546302527	1534
0	4052	226.80991055317	1535
0	4054	226.881146776385	1536
0	4056	227.11057857852	1537
0	4058	227.247420604026	1538
0	4059	227.519516697163	1537
0	4062	227.756728004508	1538
0	4064	227.862087237611	1539
0	4066	228.377927977853	1540
0	4068	228.446914017864	1541
0	4070	228.500772350268	1542
0	4072	228.531688688706	1543
0	4074	228.809398457847	1544
0	4076	228.985685480599	1545
0	4078	229.292336975561	1546
0	4080	229.337306708833	1547
0	4082	229.537324820038	1548
0	4083	229.57457132814	1547
0	4086	229.649937340837	1548
0	4088	230.137808852342	1549
0	4090	230.490874228559	1550
0	4092	230.497354673697	1551
0	4094	230.521613944535	1552
0	4095	230.579438044342	1551
0	4098	230.60978379816	1552
0	4100	230.908251558492	1553
0	4102	230.951098606682	1554
0	4103	231.007126539249	1553
0	4106	231.091223951144	1554
0	4108	231.329583725658	1555
0	4110	231.352202563849	1556
0	4112	231.592788992448	1557
0	4114	231.839040396621	1558
0	4116	231.919702079222	1559
0	4118	231.970962560703	1560
0	4120	232.018273798895	1561
0	4122	232.107820775961	1562
0	4124	232.546161898333	1563
0	4126	232.680078015399	1564
0	4128	232.88940741985	1565
0	4130	233.421256081428	1566
0	4132	233.649499073143	1567
0	4134	234.441480368273	1568
0	4135	234.506906789742	1567
0	4138	234.580340483312	1568
0	4140	234.629537427364	1569
0	4142	234.72242973234	1570
0	4144	234.792630238677	1571
0	4145	234.807574364495	1570
0	4148	234.971113585523	1571
0	4150	235.057666881967	1572
0	4152	235.072994045731	1573
0	4154	235.103115327209	1574
0	4156	235.120327216043	1575
0	4158	235.198563735648	1576
0	4160	235.240076400775	1577
0	4162	235.273764619766	1578
0	4163	235.457916378277	1577
0	4166	235.525251972128	1578
0	4168	235.632067511898	1579
0	4170	235.724556579147	1580
0	4172	235.75412864198	1581
0	4173	235.870792550659	1580
0	4176	236.238583706886	1581
0	4178	236.366076379444	1582
0	4180	236.590989818656	1583
0	4182	236.622725306622	1584
0	4184	236.688069556313	1585
0	4186	236.770093619432	1586
0	4188	236.831548781101	1587
0	4190	236.836176433977	1588
0	4192	237.051755043381	1589
0	4194	237.055685297887	1590
0	4196	237.12322850543	1591
0	4198	237.312615377157	1592
0	4200	237.333711901933	1593
0	4202	237.599605615108	1594
0	4204	237.613887336218	1595
0	4206	237.661985516595	1596
0	4208	237.775623568049	1597
0	4210	237.902243127881	1598
0	4212	237.97139276617	1599
0	4214	238.290383087141	1600
0	4216	238.547739041849	1601
0	4218	238.586896204134	1602
0	4220	238.806976115377	1603
0	4221	239.041628757765	1602
0	4224	239.161486025372	1603
0	4226	239.180644379785	1604
0	4228	239.220886069653	1605
0	4230	239.345971455094	1606
0	4232	239.383348689449	1607
0	4234	239.470213099287	1608
0	4236	239.504608993494	1609
0	4238	239.515484917078	1610
0	4240	239.531662528637	1611
0	4242	239.570321686546	1612
0	4244	239.608573021066	1613
0	4246	239.812546436029	1614
0	4247	239.846324057078	1613
0	4250	239.924623898039	1614
0	4252	240.078804148954	1615
0	4254	240.276274856348	1616
0	4256	240.367430046293	1617
0	4258	240.525495523727	1618
0	4260	240.689670584415	1619
0	4262	240.912056415565	1620
0	4263	240.996525973327	1619
0	4266	241.114569496087	1620
0	4268	241.372414669105	1621
0	4270	241.477917885367	1622
0	4272	241.60083457724	1623
0	4274	242.061941774627	1624
0	4276	242.179139312403	1625
0	4278	242.49855449843	1626
0	4279	242.505767233019	1625
0	4282	242.559193576008	1626
0	4284	242.69023119106	1627
0	4286	243.089483620079	1628
0	4288	243.099469349866	1629
0	4290	243.13646071788	1630
0	4292	243.252141349884	1631
0	4294	243.284815772836	1632
0	4296	243.289815268194	1633
0	4298	243.337504886602	1634
0	4300	243.339051884332	1635
0	4302	243.396070757003	1636
0	4304	243.401267449748	1637
0	4306	243.447251392113	1638
0	4308	243.464351951585	1639
0	4310	243.735825112377	1640
0	4312	243.96559119075	1641
0	4314	244.213327117647	1642
0	4316	244.441269670939	1643
0	4318	244.47962601065	1644
0	4319	244.490627956441	1643
0	4322	244.585484297482	1644
0	4324	244.680982545936	1645
0	4326	244.693902085068	1646
0	4328	244.715202195415	1647
0	4330	244.861328667743	1648
0	4332	244.964538568074	1649
0	4334	244.992816251094	1650
0	4336	245.217539927317	1651
0	4338	245.391182043752	1652
0	4340	245.583713809894	1653
0	4342	245.761047333668	1654
0	4343	245.825484023673	1653
0	4346	245.878912837466	1654
0	4348	246.207065387386	1655
0	4350	246.296107678885	1656
0	4352	246.341619292809	1657
0	4354	246.559983879952	1658
0	4356	246.640287184043	1659
0	4358	246.683736656755	1660
0	4360	246.827365062361	1661
0	4362	246.981707016072	1662
0	4364	247.535484359657	1663
0	4366	247.550763567991	1664
0	4368	247.551117036399	1665
0	4370	247.66728202975	1666
0	4372	247.731468723284	1667
0	4374	248.103331273261	1668
0	4376	248.144347711304	1669
0	4378	248.216069046933	1670
0	4380	248.344879764235	1671
0	4382	248.621532185679	1672
0	4384	248.665414141797	1673
0	4386	248.68796486562	1674
0	4387	248.694579778719	1673
0	4390	248.720428200642	1674
0	4391	248.806893561754	1673
0	4394	248.825037374907	1674
0	4396	248.890531116964	1675
0	4397	248.908749560907	1674
0	4400	249.011692382638	1675
0	4402	249.181227863788	1676
0	4404	249.232012556828	1677
0	4406	249.243734278025	1678
0	4408	249.555929665345	1679
0	4410	249.762365528678	1680
0	4412	249.901069152624	1681
0	4414	249.951219644819	1682
0	4416	249.989790059626	1683
0	4418	250.031891197078	1684
0	4420	250.109574062516	1685
0	4422	250.134645968878	1686
0	4423	250.139998180145	1685
0	4426	250.247122464564	1686
0	4428	250.423446370597	1687
0	4429	250.599443826577	1686
0	4432	250.672533387889	1687
0	4434	250.684024829172	1688
0	4436	250.953036128486	1689
0	4438	250.999780832062	1690
0	4440	251.076855535592	1691
0	4442	251.458343366316	1692
0	4444	251.482397877835	1693
0	4446	251.498468426374	1694
0	4448	251.510360632303	1695
0	4449	251.638920906789	1694
0	4452	251.71717679451	1695
0	4454	251.85307806965	1696
0	4456	251.859402510376	1697
0	4458	251.905288110434	1698
0	4460	252.007615783692	1699
0	4462	252.245648190189	1700
0	4464	252.419107236429	1701
0	4465	252.60131885932	1700
0	4468	252.627096359049	1701
0	4469	252.65560508072	1700
0	4472	252.889506032563	1701
0	4474	252.900415345572	1702
0	4475	253.228050504732	1701
0	4478	253.241704799518	1702
0	4479	253.338849914157	1701
0	4482	253.467879245189	1702
0	4484	253.48700180092	1703
0	4486	253.695599906315	1704
0	4488	253.735857752362	1705
0	4490	253.76158499453	1706
0	4492	253.850424351996	1707
0	4493	253.888528671536	1706
0	4496	254.024557100564	1707
0	4498	254.067673246382	1708
0	4500	254.769399652958	1709
0	4502	254.864457923964	1710
0	4504	255.029710799749	1711
0	4506	255.051219155841	1712
0	4508	255.491322644943	1713
0	4510	255.575477832787	1714
0	4512	255.655771770038	1715
0	4514	255.762277377437	1716
0	4516	255.964172625526	1717
0	4518	256.125487856907	1718
0	4520	256.215444603465	1719
0	4522	256.259566816521	1720
0	4524	256.509914445723	1721
0	4526	256.593594747292	1722
0	4528	256.60835827825	1723
0	4530	256.610651798058	1724
0	4532	256.640844633524	1725
0	4534	256.721491913386	1726
0	4536	256.805981330667	1727
0	4538	256.842314400791	1728
0	4540	256.923465348462	1729
0	4542	257.139967594583	1730
0	4544	257.272405937286	1731
0	4546	257.35011592116	1732
0	4547	257.407655364224	1731
0	4550	257.578227162674	1732
0	4552	257.845798528377	1733
0	4553	257.867116682566	1732
0	4556	257.869939540117	1733
0	4558	257.969293300378	1734
0	4560	258.0871096628	1735
0	4562	258.140730369809	1736
0	4564	258.231164296482	1737
0	4565	258.247537491826	1736
0	4568	258.370355204629	1737
0	4570	258.633619374318	1738
0	4572	258.709077586245	1739
0	4574	258.783047041934	1740
0	4576	258.833962095873	1741
0	4578	258.881028444941	1742
0	4580	258.98325822839	1743
0	4582	259.137556472198	1744
0	4584	259.222919536454	1745
0	4586	259.321319737356	1746
0	4588	259.795989368107	1747
0	4589	259.802970927497	1746
0	4592	259.861333619747	1747
0	4594	259.932148704172	1748
0	4596	259.980871597324	1749
0	4598	260.118296944939	1750
0	4599	260.270810677889	1749
0	4602	260.512561487037	1750
0	4604	260.521540712122	1751
0	4606	260.571703220432	1752
0	4608	260.594554060411	1753
0	4609	260.619288398406	1752
0	4612	260.633950704477	1753
0	4613	260.646655592794	1752
0	4615	260.751318092884	1751
0	4618	260.789729787613	1752
0	4619	260.849446770143	1751
0	4621	260.87610904721	1750
0	4624	261.068696764584	1751
0	4626	261.119448754331	1752
0	4628	261.191461799567	1753
0	4630	261.410652801215	1754
0	4632	261.428996282143	1755
0	4634	261.513315660618	1756
0	4635	261.565094221257	1755
0	4638	261.669998417919	1756
0	4640	261.709612022361	1757
0	4642	261.721735382103	1758
0	4644	261.935134402777	1759
0	4646	261.955617231476	1760
0	4648	262.008098375023	1761
0	4650	262.171147554635	1762
0	4651	262.233545595986	1761
0	4654	262.247763494471	1762
0	4655	262.423824653466	1761
0	4657	262.441201948139	1760
0	4660	262.53247937379	1761
0	4662	262.721140964773	1762
0	4664	262.800827517065	1763
0	4666	262.802483956724	1764
0	4668	262.929225336119	1765
0	4670	262.939720580517	1766
0	4672	263.018450164486	1767
0	4673	263.098311766369	1766
0	4676	263.119392364339	1767
0	4678	263.224447301303	1768
0	4680	263.440880453849	1769
0	4681	263.518749670183	1768
0	4683	263.745675378972	1767
0	4685	263.825929353013	1766
0	4687	263.887524340858	1765
0	4690	264.261746699295	1766
0	4692	264.535746776206	1767
0	4694	264.579672115544	1768
0	4696	264.707950712157	1769
0	4698	264.768975820761	1770
0	4700	264.899602963979	1771
0	4702	264.95172922891	1772
0	4704	264.997599615283	1773
0	4706	265.015432065032	1774
0	4708	265.022014291603	1775
0	4709	265.223857007501	1774
0	4711	265.373698182028	1773
0	4714	265.396129898945	1774
0	4716	265.463258290392	1775
0	4718	265.539091107663	1776
0	4719	265.57407314886	1775
0	4722	265.642513612792	1776
0	4724	265.64538826652	1777
0	4726	265.664333260698	1778
0	4728	266.088343501939	1779
0	4730	266.1300985652	1780
0	4732	266.155616042031	1781
0	4733	266.250218285163	1780
0	4736	266.402050937282	1781
0	4738	266.49644746314	1782
0	4740	266.569788995885	1783
0	4742	266.660790518667	1784
0	4744	266.66217142687	1785
0	4746	266.663036672101	1786
0	4748	266.689037615079	1787
0	4750	266.735421482636	1788
0	4752	266.847201132629	1789
0	4754	267.043373631888	1790
0	4756	267.129452363814	1791
0	4758	267.257772280636	1792
0	4760	267.344567933392	1793
0	4762	267.400804879751	1794
0	4764	267.433783508416	1795
0	4766	267.786003158074	1796
0	4768	268.003056375311	1797
0	4770	268.086068216905	1798
0	4772	268.168360939933	1799
0	4774	268.211145200874	1800
0	4776	268.250059498814	1801
0	4778	268.269470998767	1802
0	4780	268.352132373071	1803
0	4782	268.426295054647	1804
0	4784	268.535569048046	1805
0	4785	268.608399704355	1804
0	4788	268.613290555227	1805
0	4789	268.634841656909	1804
0	4792	268.942546391785	1805
0	4793	269.083506355631	1804
0	4796	269.201984920546	1805
0	4798	269.324303246139	1806
0	4800	269.391888520906	1807
0	4801	269.49157843213	1806
0	4804	269.573338537585	1807
0	4806	269.657425429571	1808
0	4808	269.792341274883	1809
0	4810	270.065853394688	1810
0	4812	270.091150389378	1811
0	4813	270.117326635018	1810
0	4816	270.124771904132	1811
0	4818	270.168296691076	1812
0	4820	270.225254335492	1813
0	4822	270.299897692875	1814
0	4823	270.389421959262	1813
0	4826	270.43850875187	1814
0	4828	270.592762613599	1815
0	4830	270.719310925393	1816
0	4832	270.721858428048	1817
0	4834	270.751887381086	1818
0	4836	270.796378678255	1819
0	4838	270.821718833161	1820
0	4840	270.84402020352	1821
0	4841	271.006030029406	1820
0	4844	271.186583410438	1821
0	4846	271.325657862107	1822
0	4848	271.349626206947	1823
0	4850	271.364841354524	1824
0	4852	271.396963742137	1825
0	4854	271.447981631589	1826
0	4856	271.804615618188	1827
0	4858	271.974249318237	1828
0	4859	272.036427833928	1827
0	4862	272.09565972471	1828
0	4863	272.193180132924	1827
0	4865	272.236323612548	1826
0	4867	272.239804653417	1825
0	4870	272.429033521452	1826
0	4872	272.730957009996	1827
0	4874	272.925945719762	1828
0	4876	272.942990759388	1829
0	4877	273.093892365515	1828
0	4879	273.170276635451	1827
0	4882	273.626525948836	1828
0	4884	273.657438218191	1829
0	4886	273.737110395354	1830
0	4888	273.839024271988	1831
0	4890	273.994062673896	1832
0	4892	273.994156039552	1833
0	4894	274.155741225309	1834
0	4896	274.47824925601	1835
0	4898	274.48161102011	1836
0	4900	274.627050463542	1837
0	4902	274.683509330202	1838
0	4904	274.749700064096	1839
0	4906	274.855283090219	1840
0	4908	275.156386665971	1841
0	4910	275.191611596591	1842
0	4912	275.198581818659	1843
0	4914	275.312286369157	1844
0	4916	275.340638033154	1845
0	4918	275.499958992153	1846
0	4920	275.500529809175	1847
0	4922	275.540220135627	1848
0	4924	275.620723782627	1849
0	4925	276.223914278628	1848
0	4928	276.511964829029	1849
0	4930	276.844139810343	1850
0	4931	276.861596746524	1849
0	4934	276.904448091787	1850
0	4936	276.992432276606	1851
0	4938	277.088893968063	1852
0	4940	277.40819092852	1853
0	4942	277.444855888704	1854
0	4944	277.524035571911	1855
0	4945	277.579255374775	1854
0	4948	277.663312977557	1855
0	4950	277.840943417723	1856
0	4952	277.875424128688	1857
0	4954	278.066089589434	1858
0	4956	278.104586991539	1859
0	4958	278.281290665261	1860
0	4960	278.342046581968	1861
0	4962	278.373560058523	1862
0	4964	278.44292185464	1863
0	4966	278.72099200622	1864
0	4968	278.830863894059	1865
0	4970	279.044324274825	1866
0	4972	279.328375893283	1867
0	4974	279.529260749439	1868
0	4976	279.762033522567	1869
0	4978	279.772342004639	1870
0	4980	279.865644515607	1871
0	4982	279.867460916334	1872
0	4984	279.95072616491	1873
0	4985	279.983177850932	1872
0	4988	280.016423559059	1873
0	4990	280.028520464504	1874
0	4992	280.103946793753	1875
0	4994	280.14117586409	1876
0	4996	280.20492061728	1877
0	4998	280.224933655039	1878
0	5000	280.480541263884	1879
0	5001	280.645178930381	1878
0	5003	280.646424811726	1877
0	5006	280.672456101151	1878
0	5008	280.789414356678	1879
0	5010	280.934375593481	1880
0	5011	280.991186072102	1879
0	5014	281.207961108036	1880
0	5016	281.235971985521	1881
0	5018	281.403693211275	1882
0	5020	281.469753407762	1883
0	5022	281.51864510779	1884
0	5023	281.543262331614	1883
0	5026	281.788956131046	1884
0	5028	281.899218419195	1885
0	5030	281.922831241702	1886
0	5031	282.072501762123	1885
0	5034	282.256131461573	1886
0	5036	282.265478104931	1887
0	5038	282.516874394223	1888
0	5040	282.626500472035	1889
0	5042	282.795724962519	1890
0	5044	282.79979053394	1891
0	5046	283.035846191333	1892
0	5048	283.07114435538	1893
0	5050	283.160872340353	1894
0	5052	283.301001579387	1895
0	5054	283.432191666464	1896
0	5056	283.654295254711	1897
0	5058	283.747335089825	1898
0	5060	283.755103407231	1899
0	5061	283.985839275072	1898
0	5064	283.994898494126	1899
0	5066	284.007854844555	1900
0	5068	284.066573626866	1901
0	5070	284.075006396523	1902
0	5072	284.230292900213	1903
0	5074	284.316391449546	1904
0	5076	284.490543706902	1905
0	5078	284.531472399593	1906
0	5080	284.76734359534	1907
0	5082	284.809110878984	1908
0	5084	284.849594070847	1909
0	5086	284.937688153666	1910
0	5088	284.987635730536	1911
0	5090	285.044154617761	1912
0	5092	285.651197962042	1913
0	5094	285.772839277405	1914
0	5096	285.9082242649	1915
0	5098	285.945452384063	1916
0	5100	286.025756039198	1917
0	5102	286.122070487621	1918
0	5104	286.885565630601	1919
0	5106	287.105514784256	1920
0	5108	287.183939782532	1921
0	5110	287.793482103215	1922
0	5112	287.821664131806	1923
0	5114	287.924333347895	1924
0	5116	288.231667979665	1925
0	5117	288.31906747483	1924
0	5120	288.409107141487	1925
0	5122	288.583061335579	1926
0	5124	288.589510404132	1927
0	5126	288.693537478211	1928
0	5127	288.74458166507	1927
0	5130	288.747170897312	1928
0	5131	288.997383705017	1927
0	5134	289.025858966249	1928
0	5136	289.171885977608	1929
0	5138	289.359134674791	1930
0	5140	289.562527677139	1931
0	5142	289.667528853375	1932
0	5144	289.892391703791	1933
0	5146	290.005628207771	1934
0	5148	290.063934732365	1935
0	5150	290.395791118602	1936
0	5152	290.56083237803	1937
0	5154	290.59537709985	1938
0	5156	290.666587825095	1939
0	5158	290.837918456574	1940
0	5160	291.025275672327	1941
0	5162	291.091055492306	1942
0	5163	291.302098228308	1941
0	5166	291.559739034674	1942
0	5167	291.615521999071	1941
0	5170	291.997316372078	1942
0	5172	292.165770656817	1943
0	5174	292.193457830674	1944
0	5176	292.260279087173	1945
0	5178	292.458556454585	1946
0	5180	292.639566304878	1947
0	5182	292.834708712313	1948
0	5184	292.931755256688	1949
0	5186	292.933872234367	1950
0	5188	293.1431600146	1951
0	5190	293.192488616951	1952
0	5192	293.270005763513	1953
0	5193	293.288987914248	1952
0	5196	293.338085768593	1953
0	5198	293.729109497844	1954
0	5199	293.790020311934	1953
0	5202	294.128106816108	1954
0	5204	294.186683186163	1955
0	5206	294.410484485324	1956
0	5208	294.750185562859	1957
0	5210	294.783477005879	1958
0	5212	294.89990627296	1959
0	5214	294.962643470414	1960
0	5216	294.994055661265	1961
0	5217	295.455547393861	1960
0	5220	295.507390831065	1961
0	5221	295.552788854046	1960
0	5224	295.583326328526	1961
0	5226	295.606780758949	1962
0	5228	295.68792272331	1963
0	5230	295.720160865664	1964
0	5231	295.879210876631	1963
0	5234	295.948750197368	1964
0	5235	295.981685468206	1963
0	5238	296.395509428494	1964
0	5240	296.705524160425	1965
0	5242	296.800291990674	1966
0	5244	296.889606989636	1967
0	5246	296.965357501614	1968
0	5248	297.009225291609	1969
0	5250	297.015524144898	1970
0	5252	297.03551338525	1971
0	5254	297.125021693661	1972
0	5256	297.171363522729	1973
0	5258	297.23673161717	1974
0	5260	297.29354611242	1975
0	5262	297.325381089307	1976
0	5264	297.406932385555	1977
0	5266	297.76696988036	1978
0	5268	297.860405870023	1979
0	5270	297.923106175548	1980
0	5272	298.036922054028	1981
0	5274	298.411910142551	1982
0	5276	298.500181983053	1983
0	5278	298.611858762715	1984
0	5280	298.979490019064	1985
0	5282	299.082805765238	1986
0	5284	299.094400466734	1987
0	5286	299.242802707395	1988
0	5287	299.334072404889	1987
0	5290	299.639096980822	1988
0	5292	299.777848908072	1989
0	5294	299.826056782814	1990
0	5296	299.973550485158	1991
0	5298	300.138622582821	1992
0	5300	300.15734532406	1993
0	5302	300.295513528725	1994
0	5304	300.486330358473	1995
0	5306	300.578049114563	1996
0	5308	300.672217195498	1997
0	5310	300.730944980932	1998
0	5312	300.769676539155	1999
0	5314	300.874367518564	2000
0	5316	301.05513367579	2001
0	5318	301.156827705024	2002
0	5320	301.325645602831	2003
0	5322	301.364442343373	2004
0	5324	301.374609769979	2005
0	5326	301.37845799211	2006
0	5328	301.421961506183	2007
0	5330	301.455292759198	2008
0	5331	301.760953773417	2007
0	5334	302.112333182385	2008
0	5336	302.181945513404	2009
0	5337	302.208475596275	2008
0	5339	302.680759995941	2007
0	5342	302.739516324879	2008
0	5344	302.87503853337	2009
0	5346	302.911395936039	2010
0	5348	302.91305824291	2011
0	5350	303.034480799607	2012
0	5352	303.287042109532	2013
0	5354	303.46900166289	2014
0	5356	303.587921764284	2015
0	5358	303.632578543477	2016
0	5360	303.703164676836	2017
0	5362	303.92713001441	2018
0	5364	304.158732286736	2019
0	5365	304.172415064543	2018
0	5368	304.212215221243	2019
0	5370	304.239942087302	2020
0	5372	304.635366215943	2021
0	5374	304.726616167448	2022
0	5376	304.746547660868	2023
0	5378	304.940993254036	2024
0	5380	304.995206104262	2025
0	5382	305.120406444751	2026
0	5384	305.146027131893	2027
0	5386	305.266842979591	2028
0	5387	305.283513547346	2027
0	5390	305.583757917238	2028
0	5391	305.673903117902	2027
0	5394	305.985806046413	2028
0	5395	306.071947188009	2027
0	5397	306.179285570987	2026
0	5400	306.349865729326	2027
0	5401	306.394213274492	2026
0	5404	306.639335974632	2027
0	5406	306.895652449746	2028
0	5408	306.914997938859	2029
0	5410	307.151185822599	2030
0	5412	307.297299701637	2031
0	5414	307.552245039469	2032
0	5415	307.624878421595	2031
0	5417	307.625369929558	2030
0	5420	307.821266615353	2031
0	5422	307.827958585862	2032
0	5424	307.859186641339	2033
0	5426	307.859549501483	2034
0	5428	307.932366121754	2035
0	5430	308.033477008628	2036
0	5432	308.050388116411	2037
0	5434	308.094855951606	2038
0	5436	308.099836979736	2039
0	5437	308.124045659921	2038
0	5440	308.258920253341	2039
0	5442	308.261685740626	2040
0	5443	308.334207995355	2039
0	5446	308.385999330335	2040
0	5448	308.540414446942	2041
0	5449	308.552529058343	2040
0	5451	308.663153267679	2039
0	5454	308.791134392437	2040
0	5456	309.10106818423	2041
0	5458	309.199587483398	2042
0	5460	309.310414161197	2043
0	5462	309.477152784271	2044
0	5464	309.517762050309	2045
0	5466	309.535253361917	2046
0	5468	309.655720449377	2047
0	5470	309.718837618734	2048
0	5472	309.754876902726	2049
0	5473	309.834541165285	2048
0	5476	309.897465813521	2049
0	5478	309.902619713162	2050
0	5480	309.982914811935	2051
0	5481	310.005443747002	2050
0	5484	310.089135773313	2051
0	5486	310.214785956493	2052
0	5488	310.35080067361	2053
0	5490	310.366133596238	2054
0	5492	311.027300353946	2055
0	5494	311.204484472781	2056
0	5496	311.209685210258	2057
0	5498	311.311851724572	2058
0	5500	311.504020456804	2059
0	5501	311.53555528334	2058
0	5504	311.644071470813	2059
0	5506	311.730155953238	2060
0	5508	311.7367720721	2061
0	5510	311.841643590035	2062
0	5512	311.900012809703	2063
0	5514	312.055762419294	2064
0	5516	312.06360547235	2065
0	5518	312.078736455297	2066
0	5520	312.121193711145	2067
0	5522	312.159252638084	2068
0	5524	312.250490120202	2069
0	5526	312.259632513853	2070
0	5528	312.294489918386	2071
0	5530	312.483589248028	2072
0	5532	312.654897952168	2073
0	5534	312.67176677287	2074
0	5535	312.724986378902	2073
0	5538	312.770917192448	2074
0	5540	312.872795430822	2075
0	5542	312.923381757004	2076
0	5544	313.098759980718	2077
0	5545	313.145848048443	2076
0	5548	313.370380947068	2077
0	5550	313.502405213651	2078
0	5552	313.621412362652	2079
0	5554	313.754977549192	2080
0	5556	314.145783905741	2081
0	5558	314.227549449629	2082
0	5560	314.314943041525	2083
0	5562	314.34057974315	2084
0	5564	314.553479062911	2085
0	5566	314.591804508256	2086
0	5568	314.796911631369	2087
0	5570	315.035408969255	2088
0	5571	315.124736809142	2087
0	5573	315.300062296011	2086
0	5576	315.452924913435	2087
0	5578	315.465855286014	2088
0	5580	315.606100287623	2089
0	5582	316.299636186589	2090
0	5584	316.332937653784	2091
0	5586	316.49458178848	2092
0	5588	316.540467470995	2093
0	5590	317.484006481105	2094
0	5592	317.552675757833	2095
0	5593	317.611192743799	2094
0	5596	317.797399102755	2095
0	5598	317.930610314388	2096
0	5599	317.984653668251	2095
0	5602	317.989637288368	2096
0	5604	318.014513278014	2097
0	5606	318.340915607306	2098
0	5608	318.358722766445	2099
0	5610	318.390913953591	2100
0	5612	318.776448874369	2101
0	5614	318.786148744552	2102
0	5615	318.809794401818	2101
0	5618	318.936509784152	2102
0	5619	318.9537364453	2101
0	5622	318.987899599916	2102
0	5624	319.013310157007	2103
0	5626	319.032802771895	2104
0	5628	319.060173544128	2105
[...]
6	7514	424.304783652169	274.45501260693
6	7530	425.108507852783	275.2327829746
6	7546	426.551122836497	276.23988240126
6	7574	428.864018036912	278.41737642169
6	7582	429.183937977015	278.65228000674
6	7594	429.626453167671	278.89067224163
6	7608	430.225908519395	279.4405650285
6	7626	431.301510214672	280.22829723022
6	7628	431.432604213024	279.55256541205
6	7648	432.415968509393	280.14777827643
6	7676	433.520399241212	280.54780948747
6	7696	434.464042236972	281.4060992337
6	7728	436.831724586512	283.24735397633
6	7734	437.122811294388	283.15764068427
6	7748	438.115761348718	283.66420475779
6	7750	438.133450270178	283.4234855543
6	7758	438.592027663781	283.8355826532
6	7766	438.924066963061	284.0600579771
6	7794	440.695567959219	285.40854568603
6	7810	441.411926351314	285.83352743894
6	7844	442.865270466348	286.94050798038
6	7846	442.903116999699	286.83215387247
6	7876	444.428716318417	288.34812804503
6	7904	445.764269038741	288.98986616174
6	7912	446.519025872405	289.72734016016
6	7916	446.632661069888	288.93646500606
6	7944	449.138945626802	291.29905060035
6	7948	449.63676372581	290.52967256384
6	7970	450.61887155074	291.50091130991
6	7978	451.081150463072	291.81580042766
6	7980	451.139416458302	291.63070399459
6	8014	454.159028474938	294.35064368025
6	8030	454.952963541853	294.86245234582
6	8038	455.598808302688	295.39989730989
6	8050	456.005889724295	295.72310273499
6	8084	457.401584234868	297.10104078624
6	8134	460.20193496178	299.01187070393
6	8150	461.022815514696	299.41722099993
6	8152	461.136758557215	299.52071022847
6	8174	462.505967585753	300.41369647844
6	8190	463.570977010352	301.07945926174
6	8222	465.803875458756	303.21961224477
6	8242	467.081531959519	304.45011971883
6	8276	468.861319704594	304.74617115564
6	8284	469.26170927307	304.8372024699
6	8298	470.177725031267	305.66827967064
6	8302	470.210482412164	305.00118915637
6	8322	471.533692287616	306.01969803413
6	8330	472.16132280389	306.61642090995
6	8356	473.549717256644	307.91411426376
6	8378	474.969720304392	309.27533850833
6	8388	475.291565352074	309.54687459142
6	8402	476.007917894144	310.08882722466
6	8416	476.584974400491	310.58830275009
6	8418	476.604405473161	310.53043017545
6	8420	476.651567632085	309.89551697699
6	8430	476.999095814979	310.11363160723
6	8474	479.639544343006	312.60373789877
6	8490	480.073798109099	312.91411720218
6	8492	480.222572200407	312.45888801673
6	8498	480.317630131107	312.033493323
6	8532	482.134071062648	313.76732834632
6	8544	482.648470880769	313.93185707994
6	8562	484.076748135317	315.31935848455
6	8574	485.095258396295	315.92592860266
6	8596	485.96878885613	316.71612716427
6	8598	486.061426138993	316.72146891087
6	8614	487.380836123096	317.72676117693
6	8630	488.500746693161	318.8336065546
6	8634	488.550454669273	318.64427028092
6	8658	490.10334349151	319.88798616916
6	8672	491.188506300963	320.89829337231
6	8720	494.247115230635	323.90687953565
6	8784	498.887171590887	328.07483284065
6	8794	499.264008992	328.22367534294
6	8796	499.324613794867	327.67256429601
6	8844	501.52521477133	329.63184384013
6	8858	502.259989976319	330.24912716478
6	8916	505.898158769348	333.83411340154
6	8930	506.358574880803	334.26899900897
6	8942	507.345181270843	335.03964424128
6	8950	507.80624465321	335.42565733484
6	8974	509.121916238152	336.66201559863
6	8980	509.36598103674	336.6821687636
6	8984	509.532513954046	336.0595483704
6	8992	510.013168415424	336.34905549435
6	9024	511.056784974479	337.39245688804
6	9028	511.37252611554	337.70373065244
6	9052	512.868616263892	338.71286065786
6	9054	512.939051476986	338.64065670028
6	9060	513.012380782714	338.52399205315
6	9066	513.317020037522	338.44099087462
6	9080	514.032196273056	338.78206182004
6	9092	515.243291341808	339.7704591415
6	9122	518.072485967014	342.00259770252
6	9156	519.491244289115	342.97328988155
6	9198	522.085929366848	345.11169719937
6	9224	523.35651777848	345.89611201582
6	9232	523.645069170112	345.39745501684
6	9260	525.504547045974	347.20105751713
6	9266	526.033610947758	347.56082537419
6	9276	526.732580696856	348.0325245344
6	9280	527.113191701095	348.05394319864
6	9288	527.27887600831	347.98513858756
6	9300	528.009883651593	348.69690279309
6	9314	528.881007459254	349.06781288824
7	10	0.716287054109	1
7	30	1.424768080093	2
7	48	2.35911145069	3
7	88	4.360283430523	4
7	126	7.343704482458	5
7	134	7.778946376912	6
7	146	8.534435944522	7
7	180	10.872864621786	8
7	202	12.481603518881	9
7	226	13.846485895472	10
7	242	14.765774582386	11
7	284	17.370753012574	12
7	298	17.918927193439	13
7	300	17.93599890572	14
7	320	18.799592085351	15
7	334	19.830217144581	16
7	340	20.231183790127	17
7	368	21.307680809638	18
7	372	21.363584571058	19
7	376	21.77047642526	20
7	390	22.530461439435	21
7	400	23.050053319161	22
7	402	23.146924916501	23
7	406	23.305247107384	24
7	410	23.439088149711	25
7	428	24.987386641656	26
7	430	25.079317035028	27
7	434	25.170248332806	28
7	480	28.55598288886	29
7	494	29.391613536071	30
7	498	29.506864624851	31
7	500	29.620614397634	32
7	514	30.102010335815	33
7	532	31.163280910174	34
7	538	31.440854266262	35
7	548	32.107537321664	36
7	554	32.234734963869	37
7	582	33.368675392967	38
7	584	33.386956605883	39
7	586	33.391192492326	40
7	612	34.410563220101	41
7	652	37.358192080044	42
7	660	38.13074575109	43
7	670	38.895044481498	44
7	674	39.1222224751	45
7	708	40.808336366971	46
7	724	41.971054708892	47
7	780	44.783976230784	48
7	794	45.713493540365	49
7	810	46.552656132731	50
7	812	46.570097935944	51
7	838	47.541486114734	52
7	846	47.849825776962	53
7	866	48.715963327156	54
7	882	49.520319497631	55
7	894	50.470584145425	56
7	896	50.978733596434	57
7	940	53.020504189857	58
7	952	53.432859785419	59
7	964	53.948075181705	60
7	972	54.093758259746	61
7	994	55.789294257673	62
7	1008	56.865188967327	63
7	1026	58.017489750758	64
7	1060	59.828985213343	65
7	1124	63.167949746056	66
7	1146	64.910869259798	67
7	1148	64.921474168525	68
7	1162	66.099842696145	69
7	1166	66.269308173842	70
7	1170	66.319591221442	71
7	1176	66.520416508733	72
7	1178	66.537242432112	73
7	1198	67.957813882007	74
7	1212	68.339105273228	75
7	1220	68.501066880625	76
7	1224	68.745568143933	77
7	1228	69.082065990246	78
7	1236	69.267494833881	79
7	1270	71.86766286659	80
7	1276	72.474482979263	81
7	1280	72.901457640563	82
7	1286	73.079628602364	83
7	1288	73.102118120346	84
7	1312	74.125902775333	85
7	1328	74.670025871835	86
7	1398	78.845713145571	87
7	1420	79.824827135824	88
7	1424	80.260101684565	89
7	1432	81.0588534202	90
7	1456	81.951207283807	91
7	1486	83.8059464006	92
7	1490	84.093563589986	93
7	1494	84.278376581848	94
7	1510	85.325178536931	95
7	1560	87.975210786612	96
7	1580	89.156467980281	97
7	1582	89.179865950955	98
7	1590	89.601674779334	99
7	1596	90.162221158122	100
7	1598	90.454915574301	101
7	1606	91.250322664731	102
7	1632	91.905994123192	103
7	1646	93.041625529331	104
7	1656	93.182453722677	105
7	1668	93.577963574121	106
7	1696	94.820830360221	107
7	1726	96.927273124813	108
7	1728	97.005670849746	109
7	1730	97.25364599308	110
7	1754	98.637691836109	111
7	1786	100.52009275147	112
7	1796	100.757312153022	113
7	1818	102.623697469812	114
7	1844	104.324788998099	115
7	1870	105.19059973203	116
7	1876	105.574481962863	117
7	1948	109.18163665225	118
7	1954	109.826077438444	119
7	1966	110.054687678959	120
7	1976	110.525358567249	121
7	2000	111.689191640165	122
7	2002	111.699535565353	123
7	2026	113.024519307547	124
7	2028	113.167559169238	125
7	2038	114.170957848954	126
7	2068	115.944009657987	127
7	2088	117.112610730031	128
7	2094	117.396254755875	129
7	2100	117.523125851849	130
7	2102	117.574395731069	131
7	2106	118.12255374086	132
7	2110	118.422616745398	133
7	2124	118.852742934158	134
7	2138	119.927354967694	135
7	2156	121.284748676158	136
7	2164	121.701799700944	137
7	2168	121.899321045748	138
7	2170	121.940395290294	139
7	2172	122.012466260644	140
7	2180	122.342272423293	141
7	2190	123.117773165909	142
7	2232	126.00210111256	143
7	2234	126.034503659334	144
7	2248	127.063919500541	145
7	2302	129.883466041133	146
7	2338	131.992381978216	147
7	2350	133.151547755784	148
7	2380	134.205685081236	149
7	2386	134.563057936254	150
7	2396	134.72055347965	151
7	2430	136.152953990164	152
7	2478	139.031383469257	153
7	2484	139.582854369634	154
7	2494	140.387455632046	155
7	2522	141.908667091329	156
7	2524	142.064957998217	157
7	2534	142.9571095534	158
7	2544	143.414507062048	159
7	2550	143.911040313379	160
7	2558	144.180435857556	161
7	2560	144.210920527274	162
7	2570	144.606089814303	163
7	2572	144.620906769889	164
7	2614	147.005176205896	165
7	2658	149.620503849186	166
7	2688	151.453168617731	167
7	2698	151.998059021207	168
7	2706	152.354068061563	169
7	2708	152.592509505437	170
7	2718	153.450319789876	171
7	2720	153.5137715434	172
7	2724	153.64019968866	173
7	2726	153.651098009215	174
7	2744	154.518331435875	175
7	2800	157.811937342491	176
7	2816	158.285365058675	177
7	2830	159.201760879601	178
7	2842	159.808309979398	179
7	2866	161.184354963039	180
7	2878	162.161937943081	181
7	2880	162.416139983844	182
7	2892	162.912761893318	183
7	2900	163.640843618937	184
7	2902	163.945355125766	185
7	2906	164.347781038104	186
7	2932	165.866277497986	187
7	2984	168.991847633298	188
7	2992	169.308438280185	189
7	3076	173.655186503357	190
7	3086	173.913404689202	191
7	3088	174.014154776231	192
7	3126	176.727626221198	193
7	3134	177.01387531187	194
7	3140	177.442739550745	195
7	3144	177.86472989081	196
7	3170	179.108043062673	197
7	3174	179.277751314499	198
7	3184	179.604522270665	199
7	3232	182.176205083699	200
7	3248	183.080809167414	201
7	3256	184.331231823668	202
7	3274	185.413533433906	203
7	3332	188.510383076733	204
7	3338	188.57653881641	205
7	3340	188.888328811155	206
7	3342	189.014999451041	207
7	3384	191.046728562722	208
7	3420	194.138789615952	209
7	3438	194.851237801095	210
7	3446	195.574060895824	211
7	3458	196.208515285062	212
7	3470	196.87845572032	213
7	3484	197.2436094298	214
7	3512	199.564811247507	215
7	3526	200.096562945871	216
7	3546	200.973053678203	217
7	3566	201.988038068419	218
7	3578	202.694139095645	219
7	3582	202.993173656866	220
7	3584	203.077553505715	221
7	3598	203.455084896837	222
7	3604	203.565751207036	223
7	3616	204.340394443799	224
7	3642	205.343544346498	225
7	3644	205.345980533619	226
7	3668	206.283640551958	227
7	3728	209.245224499192	228
7	3730	209.260538560549	229
7	3748	210.772792720622	230
7	3754	210.864864323531	231
7	3762	211.389978478606	232
7	3770	212.268641299278	233
7	3794	214.117288534755	234
7	3820	216.417254479753	235
7	3858	218.011472467141	236
7	3862	218.184358485675	237
7	3918	220.919936916796	238
7	3954	222.876746533217	239
7	3970	223.40891904023	240
7	3974	223.566084057062	241
7	3996	224.539975753098	242
7	4008	225.062236382283	243
7	4024	225.318034151459	244
7	4026	225.374755251291	245
7	4060	227.519516697163	246
7	4084	229.57457132814	247
7	4096	230.579438044342	248
7	4104	231.007126539249	249
7	4136	234.506906789742	250
7	4146	234.807574364495	251
7	4164	235.457916378277	252
7	4174	235.870792550659	253
7	4222	239.041628757765	254
7	4248	239.846324057078	255
7	4264	240.996525973327	256
7	4280	242.505767233019	257
7	4320	244.490627956441	258
7	4344	245.825484023673	259
7	4388	248.694579778719	260
7	4392	248.806893561754	261
7	4398	248.908749560907	262
7	4424	250.139998180145	263
7	4430	250.599443826577	264
7	4450	251.638920906789	265
7	4466	252.60131885932	266
7	4470	252.65560508072	267
7	4476	253.228050504732	268
7	4480	253.338849914157	269
7	4494	253.888528671536	270
7	4548	257.407655364224	271
7	4554	257.867116682566	272
7	4566	258.247537491826	273
7	4590	259.802970927497	274
7	4600	260.270810677889	275
7	4610	260.619288398406	276
7	4614	260.646655592794	277
7	4616	260.751318092884	278
7	4620	260.849446770143	279
7	4622	260.87610904721	280
7	4636	261.565094221257	281
7	4652	262.233545595986	282
7	4656	262.423824653466	283
7	4658	262.441201948139	284
7	4674	263.098311766369	285
7	4682	263.518749670183	286
7	4684	263.745675378972	287
7	4686	263.825929353013	288
7	4688	263.887524340858	289
7	4710	265.223857007501	290
7	4712	265.373698182028	291
7	4720	265.57407314886	292
7	4734	266.250218285163	293
7	4786	268.608399704355	294
7	4790	268.634841656909	295
7	4794	269.083506355631	296
7	4802	269.49157843213	297
7	4814	270.117326635018	298
7	4824	270.389421959262	299
7	4842	271.006030029406	300
7	4860	272.036427833928	301
7	4864	272.193180132924	302
7	4866	272.236323612548	303
7	4868	272.239804653417	304
7	4878	273.093892365515	305
7	4880	273.170276635451	306
7	4926	276.223914278628	307
7	4932	276.861596746524	308
7	4946	277.579255374775	309
7	4986	279.983177850932	310
7	5002	280.645178930381	311
7	5004	280.646424811726	312
7	5012	280.991186072102	313
7	5024	281.543262331614	314
7	5032	282.072501762123	315
7	5062	283.985839275072	316
7	5118	288.31906747483	317
7	5128	288.74458166507	318
7	5132	288.997383705017	319
7	5164	291.302098228308	320
7	5168	291.615521999071	321
7	5194	293.288987914248	322
7	5200	293.790020311934	323
7	5218	295.455547393861	324
7	5222	295.552788854046	325
7	5232	295.879210876631	326
7	5236	295.981685468206	327
7	5288	299.334072404889	328
7	5332	301.760953773417	329
7	5338	302.208475596275	330
7	5340	302.680759995941	331
7	5366	304.172415064543	332
7	5388	305.283513547346	333
7	5392	305.673903117902	334
7	5396	306.071947188009	335
7	5398	306.179285570987	336
7	5402	306.394213274492	337
7	5416	307.624878421595	338
7	5418	307.625369929558	339
7	5438	308.124045659921	340
7	5444	308.334207995355	341
7	5450	308.552529058343	342
7	5452	308.663153267679	343
7	5474	309.834541165285	344
7	5482	310.005443747002	345
7	5502	311.53555528334	346
7	5536	312.724986378902	347
7	5546	313.145848048443	348
7	5572	315.124736809142	349
7	5574	315.300062296011	350
7	5594	317.611192743799	351
7	5600	317.984653668251	352
7	5616	318.809794401818	353
7	5620	318.9537364453	354
7	5658	320.814902528942	355
7	5666	320.999585065438	356
7	5678	321.342116874819	357
7	5688	321.875074198399	358
7	5722	324.093358321178	359
7	5728	324.230676854504	360
7	5736	324.692564397614	361
7	5750	325.177699955298	362
7	5756	325.562904590712	363
7	5758	325.618002079623	364
7	5768	325.984461542108	365
7	5774	326.158002232028	366
7	5778	326.210705195518	367
7	5836	329.753650712351	368
7	5840	329.844933017402	369
7	5856	330.597222828187	370
7	5864	330.974386551399	371
7	5884	332.552684166999	372
7	5916	333.887645345473	373
7	5918	333.92713075563	374
7	5922	334.291696661894	375
7	5930	334.872628455817	376
7	5938	335.233417048098	377
7	5968	336.74664500382	378
7	5970	336.882787504359	379
7	5976	337.114938210719	380
7	5978	337.179141516493	381
7	6008	338.280012282989	382
7	6010	338.615065887814	383
7	6030	339.756330619283	384
7	6050	340.927331993358	385
7	6054	341.148254527285	386
7	6106	344.426693246502	387
7	6114	344.808196352794	388
7	6128	345.39683555906	389
7	6164	347.378877159955	390
7	6170	347.6026122318	391
7	6172	347.709006807332	392
7	6186	348.059196859896	393
7	6192	348.40167359898	394
7	6196	348.576445479883	395
7	6204	348.90283499162	396
7	6236	351.195541117423	397
7	6258	352.66803988396	398
7	6276	353.82646777919	399
7	6282	354.436654748731	400
7	6306	356.052745993686	401
7	6310	356.269276118666	402
7	6314	356.905547466314	403
7	6352	359.414107235731	404
7	6374	360.431593262845	405
7	6388	361.541872212688	406
7	6390	361.582346713832	407
7	6424	363.487002177067	408
7	6428	363.515029017172	409
7	6440	364.300764163721	410
7	6442	364.605898208616	411
7	6446	365.083235407001	412
7	6460	365.688290657499	413
7	6470	366.295042064018	414
7	6472	366.419711721918	415
7	6522	369.434950317054	416
7	6526	369.822645038824	417
7	6534	370.086833201835	418
7	6546	370.429612740759	419
7	6556	371.599861797268	420
7	6558	371.621976728465	421
7	6568	372.202454982384	422
7	6636	375.334843260712	423
7	6642	375.61271445186	424
7	6644	375.624955150249	425
7	6658	376.755147125868	426
7	6666	377.243288850218	427
7	6668	377.253566928107	428
7	6670	377.331835588022	429
7	6676	377.379019004989	430
7	6716	379.936459865249	431
7	6724	380.23002258302	432
7	6730	380.415124790986	433
7	6778	383.738531140078	434
7	6794	384.656675195301	435
7	6848	387.73605826685	436
7	6868	389.00154243221	437
7	6902	390.94825431136	438
7	6908	391.043330559361	439
7	6938	392.32393539469	440
7	6986	395.395557331104	441
7	7010	397.779830062571	442
7	7036	399.15654875376	443
7	7042	399.732047447818	444
7	7048	400.251085507404	445
7	7052	400.455065753995	446
7	7056	400.729472148882	447
7	7072	401.39391976491	448
7	7076	401.499328520062	449
7	7106	402.396181166464	450
7	7206	407.986634105213	451
7	7214	408.818803733005	452
7	7216	408.942094545404	453
7	7230	409.729712972421	454
7	7232	409.73157306168	455
7	7238	410.028301729621	456
7	7290	412.686084660051	457
7	7306	413.859693203756	458
7	7330	415.271856966314	459
7	7338	415.374884222767	460
7	7344	415.472158299321	461
7	7348	415.763633835938	462
7	7374	416.866649537682	463
7	7380	417.148299006015	464
7	7418	419.950722751684	465
7	7444	421.528727585375	466
7	7452	421.681346561429	467
7	7470	422.1809636021	468
7	7508	424.189937700443	469
7	7512	424.288347762626	470
7	7514	424.304783652169	471
7	7530	425.108507852783	472
7	7546	426.551122836497	473
7	7574	428.864018036912	474
7	7582	429.183937977015	475
7	7594	429.626453167671	476
7	7608	430.225908519395	477
7	7626	431.301510214672	478
7	7628	431.432604213024	479
7	7648	432.415968509393	480
7	7676	433.520399241212	481
7	7696	434.464042236972	482
7	7728	436.831724586512	483
7	7734	437.122811294388	484
7	7748	438.115761348718	485
7	7750	438.133450270178	486
7	7758	438.592027663781	487
7	7766	438.924066963061	488
7	7794	440.695567959219	489
7	7810	441.411926351314	490
7	7844	442.865270466348	491
7	7846	442.903116999699	492
7	7876	444.428716318417	493
7	7904	445.764269038741	494
7	7912	446.519025872405	495
7	7916	446.632661069888	496
7	7944	449.138945626802	497
7	7948	449.63676372581	498
7	7970	450.61887155074	499
7	7978	451.081150463072	500
7	7980	451.139416458302	501
7	8014	454.159028474938	502
7	8030	454.952963541853	503
7	8038	455.598808302688	504
7	8050	456.005889724295	505
7	8084	457.401584234868	506
7	8134	460.20193496178	507
7	8150	461.022815514696	508
7	8152	461.136758557215	509
7	8174	462.505967585753	510
7	8190	463.570977010352	511
7	8222	465.803875458756	512
7	8242	467.081531959519	513
7	8276	468.861319704594	514
7	8284	469.26170927307	515
7	8298	470.177725031267	516
7	8302	470.210482412164	517
7	8322	471.533692287616	518
7	8330	472.16132280389	519
7	8356	473.549717256644	520
7	8378	474.969720304392	521
7	8388	475.291565352074	522
7	8402	476.007917894144	523
7	8416	476.584974400491	524
7	8418	476.604405473161	525
7	8420	476.651567632085	526
7	8430	476.999095814979	527
7	8474	479.639544343006	528
7	8490	480.073798109099	529
7	8492	480.222572200407	530
7	8498	480.317630131107	531
7	8532	482.134071062648	532
7	8544	482.648470880769	533
7	8562	484.076748135317	534
7	8574	485.095258396295	535
7	8596	485.96878885613	536
7	8598	486.061426138993	537
7	8614	487.380836123096	538
7	8630	488.500746693161	539
7	8634	488.550454669273	540
7	8658	490.10334349151	541
7	8672	491.188506300963	542
7	8720	494.247115230635	543
7	8784	498.887171590887	544
7	8794	499.264008992	545
7	8796	499.324613794867	546
7	8844	501.52521477133	547
7	8858	502.259989976319	548
7	8916	505.898158769348	549
7	8930	506.358574880803	550
7	8942	507.345181270843	551
7	8950	507.80624465321	552
7	8974	509.121916238152	553
7	8980	509.36598103674	554
7	8984	509.532513954046	555
7	8992	510.013168415424	556
7	9024	511.056784974479	557
7	9028	511.37252611554	558
7	9052	512.868616263892	559
7	9054	512.939051476986	560
7	9060	513.012380782714	561
7	9066	513.317020037522	562
7	9080	514.032196273056	563
7	9092	515.243291341808	564
7	9122	518.072485967014	565
7	9156	519.491244289115	566
7	9198	522.085929366848	567
7	9224	523.35651777848	568
7	9232	523.645069170112	569
7	9260	525.504547045974	570
7	9266	526.033610947758	571
7	9276	526.732580696856	572
7	9280	527.113191701095	573
7	9288	527.27887600831	574
7	9300	528.009883651593	575
7	9314	528.881007459254	576

